┌ Info: 2021-09-28T17:03:37.122 [22826:1]: The PSS(R)E parser currently supports buses, loads, shunts, generators, branches, transformers, and dc lines
└ @ PowerSystems /Users/jdlara/.julia/packages/PowerSystems/a9ndT/src/parsers/pm_io/common.jl:25
┌ Info: 2021-09-28T17:03:37.306 [22826:1]: The PSS(R)E parser currently supports buses, loads, shunts, generators, branches, transformers, and dc lines
└ @ PowerSystems /Users/jdlara/.julia/packages/PowerSystems/a9ndT/src/parsers/pm_io/psse.jl:1035
┌ Info: 2021-09-28T17:03:38.798 [22826:1]: angmin and angmax values are 0, widening these values on branch 1 to +/- 60.0 deg.
└ @ PowerSystems /Users/jdlara/.julia/packages/PowerSystems/a9ndT/src/parsers/pm_io/data.jl:1077
┌ Info: 2021-09-28T17:03:39.365 [22826:1]: the voltage setpoint on generator 1 does not match the value at bus 102
└ @ PowerSystems /Users/jdlara/.julia/packages/PowerSystems/a9ndT/src/parsers/pm_io/data.jl:1796
┌ Info: 2021-09-28T17:03:39.796 [22826:1]: Constructing System from Power Models
│   data["name"] = omib
│   data["source_type"] = pti
└ @ PowerSystems /Users/jdlara/.julia/packages/PowerSystems/a9ndT/src/parsers/power_models_data.jl:52
┌ Info: 2021-09-28T17:03:40.583 [22826:1]: Reading bus data
└ @ PowerSystems /Users/jdlara/.julia/packages/PowerSystems/a9ndT/src/parsers/power_models_data.jl:173
┌ Info: 2021-09-28T17:03:42.389 [22826:1]: Reading generator data
└ @ PowerSystems /Users/jdlara/.julia/packages/PowerSystems/a9ndT/src/parsers/power_models_data.jl:488
┌ Info: 2021-09-28T17:03:47.854 [22826:1]: Reading branch data
└ @ PowerSystems /Users/jdlara/.julia/packages/PowerSystems/a9ndT/src/parsers/power_models_data.jl:632
┌ Info: 2021-09-28T17:03:48.982 [22826:1]: Reading branch data
└ @ PowerSystems /Users/jdlara/.julia/packages/PowerSystems/a9ndT/src/parsers/power_models_data.jl:694
┌ Info: 2021-09-28T17:03:48.982 [22826:1]: Reading DC Line data
└ @ PowerSystems /Users/jdlara/.julia/packages/PowerSystems/a9ndT/src/parsers/power_models_data.jl:666
┌ Info: 2021-09-28T17:03:48.982 [22826:1]: Reading storage data
└ @ PowerSystems /Users/jdlara/.julia/packages/PowerSystems/a9ndT/src/parsers/power_models_data.jl:713
┌ Info: 2021-09-28T17:03:52.386 [22826:1]: Validating connectivity with Goderya algorithm
└ @ PowerSystems /Users/jdlara/.julia/packages/PowerSystems/a9ndT/src/utils/network_calculations/ybus_calculations.jl:296
┌ Info: 2021-09-28T17:03:52.481 [22826:1]: The System has no islands
└ @ PowerSystems /Users/jdlara/.julia/packages/PowerSystems/a9ndT/src/utils/network_calculations/ybus_calculations.jl:242
┌ Info: 2021-09-28T17:03:52.507 [22826:1]: The PSS(R)E parser currently supports buses, loads, shunts, generators, branches, transformers, and dc lines
└ @ PowerSystems /Users/jdlara/.julia/packages/PowerSystems/a9ndT/src/parsers/pm_io/common.jl:25
┌ Info: 2021-09-28T17:03:52.507 [22826:1]: The PSS(R)E parser currently supports buses, loads, shunts, generators, branches, transformers, and dc lines
└ @ PowerSystems /Users/jdlara/.julia/packages/PowerSystems/a9ndT/src/parsers/pm_io/psse.jl:1035
┌ Info: 2021-09-28T17:03:52.508 [22826:1]: angmin and angmax values are 0, widening these values on branch 1 to +/- 60.0 deg.
└ @ PowerSystems /Users/jdlara/.julia/packages/PowerSystems/a9ndT/src/parsers/pm_io/data.jl:1077
┌ Info: 2021-09-28T17:03:52.509 [22826:1]: the voltage setpoint on generator 1 does not match the value at bus 102
└ @ PowerSystems /Users/jdlara/.julia/packages/PowerSystems/a9ndT/src/parsers/pm_io/data.jl:1796
┌ Info: 2021-09-28T17:03:52.514 [22826:1]: Constructing System from Power Models
│   data["name"] = omib
│   data["source_type"] = pti
└ @ PowerSystems /Users/jdlara/.julia/packages/PowerSystems/a9ndT/src/parsers/power_models_data.jl:52
┌ Info: 2021-09-28T17:03:52.525 [22826:1]: Reading bus data
└ @ PowerSystems /Users/jdlara/.julia/packages/PowerSystems/a9ndT/src/parsers/power_models_data.jl:173
┌ Info: 2021-09-28T17:03:52.526 [22826:1]: Reading generator data
└ @ PowerSystems /Users/jdlara/.julia/packages/PowerSystems/a9ndT/src/parsers/power_models_data.jl:488
┌ Info: 2021-09-28T17:03:52.527 [22826:1]: Reading branch data
└ @ PowerSystems /Users/jdlara/.julia/packages/PowerSystems/a9ndT/src/parsers/power_models_data.jl:632
┌ Info: 2021-09-28T17:03:52.527 [22826:1]: Reading branch data
└ @ PowerSystems /Users/jdlara/.julia/packages/PowerSystems/a9ndT/src/parsers/power_models_data.jl:694
┌ Info: 2021-09-28T17:03:52.527 [22826:1]: Reading DC Line data
└ @ PowerSystems /Users/jdlara/.julia/packages/PowerSystems/a9ndT/src/parsers/power_models_data.jl:666
┌ Info: 2021-09-28T17:03:52.527 [22826:1]: Reading storage data
└ @ PowerSystems /Users/jdlara/.julia/packages/PowerSystems/a9ndT/src/parsers/power_models_data.jl:713
┌ Info: 2021-09-28T17:03:53.010 [22826:1]: The System has no islands
└ @ PowerSystems /Users/jdlara/.julia/packages/PowerSystems/a9ndT/src/utils/network_calculations/ybus_calculations.jl:242
┌ Info: 2021-09-28T17:04:17.820 [22826:1]: Unit System changed to UnitSystem.DEVICE_BASE = 1
└ @ PowerSystems /Users/jdlara/.julia/packages/PowerSystems/a9ndT/src/base.jl:339
┌ Info: 2021-09-28T17:04:55.283 [22826:1]: Serialized System to /Users/jdlara/.julia/dev/PowerSimulationsDynamics/test-Base-1/input_system.json
└ @ PowerSystems /Users/jdlara/.julia/packages/PowerSystems/a9ndT/src/base.jl:274
┌ Warning: 2021-09-28T17:05:00.641 [22826:1]: struct DynamicGenerator does not exist in validation configuration file, validation skipped
└ @ InfrastructureSystems /Users/jdlara/.julia/packages/InfrastructureSystems/7AXsY/src/validation.jl:51
┌ Warning: 2021-09-28T17:05:01.304 [22826:1]: struct DynamicGenerator does not exist in validation configuration file, validation skipped
└ @ InfrastructureSystems /Users/jdlara/.julia/packages/InfrastructureSystems/7AXsY/src/validation.jl:51
┌ Warning: 2021-09-28T17:05:01.514 [22826:1]: There are no ElectricLoad Components in the System
└ @ PowerSystems /Users/jdlara/.julia/packages/PowerSystems/a9ndT/src/utils/IO/system_checks.jl:56
┌ Info: 2021-09-28T17:05:01.575 [22826:1]: removing test files
└ @ Main /Users/jdlara/.julia/dev/PowerSimulationsDynamics/test/test_base.jl:40
┌ Info: 2021-09-28T17:05:01.608 [22826:1]: Unit System changed to UnitSystem.DEVICE_BASE = 1
└ @ PowerSystems /Users/jdlara/.julia/packages/PowerSystems/a9ndT/src/base.jl:339
┌ Info: 2021-09-28T17:05:01.908 [22826:1]: Serialized System to /Users/jdlara/.julia/dev/PowerSimulationsDynamics/test-Base-2/initialized_system.json
└ @ PowerSystems /Users/jdlara/.julia/packages/PowerSystems/a9ndT/src/base.jl:274
┌ Warning: 2021-09-28T17:05:01.958 [22826:1]: struct DynamicGenerator does not exist in validation configuration file, validation skipped
└ @ InfrastructureSystems /Users/jdlara/.julia/packages/InfrastructureSystems/7AXsY/src/validation.jl:51
┌ Warning: 2021-09-28T17:05:01.960 [22826:1]: struct DynamicGenerator does not exist in validation configuration file, validation skipped
└ @ InfrastructureSystems /Users/jdlara/.julia/packages/InfrastructureSystems/7AXsY/src/validation.jl:51
┌ Warning: 2021-09-28T17:05:01.961 [22826:1]: There are no ElectricLoad Components in the System
└ @ PowerSystems /Users/jdlara/.julia/packages/PowerSystems/a9ndT/src/utils/IO/system_checks.jl:56
┌ Info: 2021-09-28T17:05:01.961 [22826:1]: removing test files
└ @ Main /Users/jdlara/.julia/dev/PowerSimulationsDynamics/test/test_base.jl:70
┌ Info: 2021-09-28T17:05:02.734 [22826:1]: The PSS(R)E parser currently supports buses, loads, shunts, generators, branches, transformers, and dc lines
└ @ PowerSystems /Users/jdlara/.julia/packages/PowerSystems/a9ndT/src/parsers/pm_io/common.jl:25
┌ Info: 2021-09-28T17:05:02.734 [22826:1]: The PSS(R)E parser currently supports buses, loads, shunts, generators, branches, transformers, and dc lines
└ @ PowerSystems /Users/jdlara/.julia/packages/PowerSystems/a9ndT/src/parsers/pm_io/psse.jl:1035
┌ Info: 2021-09-28T17:05:02.745 [22826:1]: angmin and angmax values are 0, widening these values on branch 1 to +/- 60.0 deg.
└ @ PowerSystems /Users/jdlara/.julia/packages/PowerSystems/a9ndT/src/parsers/pm_io/data.jl:1077
┌ Info: 2021-09-28T17:05:02.745 [22826:1]: angmin and angmax values are 0, widening these values on branch 2 to +/- 60.0 deg.
└ @ PowerSystems /Users/jdlara/.julia/packages/PowerSystems/a9ndT/src/parsers/pm_io/data.jl:1077
┌ Info: 2021-09-28T17:05:02.745 [22826:1]: angmin and angmax values are 0, widening these values on branch 3 to +/- 60.0 deg.
└ @ PowerSystems /Users/jdlara/.julia/packages/PowerSystems/a9ndT/src/parsers/pm_io/data.jl:1077
┌ Info: 2021-09-28T17:05:02.746 [22826:1]: Constructing System from Power Models
│   data["name"] = threebusinverter
│   data["source_type"] = pti
└ @ PowerSystems /Users/jdlara/.julia/packages/PowerSystems/a9ndT/src/parsers/power_models_data.jl:52
┌ Info: 2021-09-28T17:05:02.751 [22826:1]: Reading bus data
└ @ PowerSystems /Users/jdlara/.julia/packages/PowerSystems/a9ndT/src/parsers/power_models_data.jl:173
┌ Info: 2021-09-28T17:05:03.234 [22826:1]: Reading generator data
└ @ PowerSystems /Users/jdlara/.julia/packages/PowerSystems/a9ndT/src/parsers/power_models_data.jl:488
┌ Info: 2021-09-28T17:05:03.240 [22826:1]: Reading branch data
└ @ PowerSystems /Users/jdlara/.julia/packages/PowerSystems/a9ndT/src/parsers/power_models_data.jl:632
┌ Info: 2021-09-28T17:05:03.276 [22826:1]: Reading branch data
└ @ PowerSystems /Users/jdlara/.julia/packages/PowerSystems/a9ndT/src/parsers/power_models_data.jl:694
┌ Info: 2021-09-28T17:05:03.276 [22826:1]: Reading DC Line data
└ @ PowerSystems /Users/jdlara/.julia/packages/PowerSystems/a9ndT/src/parsers/power_models_data.jl:666
┌ Info: 2021-09-28T17:05:03.276 [22826:1]: Reading storage data
└ @ PowerSystems /Users/jdlara/.julia/packages/PowerSystems/a9ndT/src/parsers/power_models_data.jl:713
┌ Info: 2021-09-28T17:05:05.988 [22826:1]: Unit System changed to UnitSystem.DEVICE_BASE = 1
└ @ PowerSystems /Users/jdlara/.julia/packages/PowerSystems/a9ndT/src/base.jl:339
┌ Info: 2021-09-28T17:05:17.482 [22826:1]: Unit System changed to UnitSystem.DEVICE_BASE = 1
└ @ PowerSystems /Users/jdlara/.julia/packages/PowerSystems/a9ndT/src/base.jl:339
┌ Info: 2021-09-28T17:05:20.173 [22826:1]: The PSS(R)E parser currently supports buses, loads, shunts, generators, branches, transformers, and dc lines
└ @ PowerSystems /Users/jdlara/.julia/packages/PowerSystems/a9ndT/src/parsers/pm_io/common.jl:25
┌ Info: 2021-09-28T17:05:20.173 [22826:1]: The PSS(R)E parser currently supports buses, loads, shunts, generators, branches, transformers, and dc lines
└ @ PowerSystems /Users/jdlara/.julia/packages/PowerSystems/a9ndT/src/parsers/pm_io/psse.jl:1035
┌ Info: 2021-09-28T17:05:20.182 [22826:1]: The following fields in GENERATOR are missing: O2, F2, O3, F3, O4, F4, WMOD, WPF
└ @ PowerSystems /Users/jdlara/.julia/packages/PowerSystems/a9ndT/src/parsers/pm_io/pti.jl:1227
┌ Info: 2021-09-28T17:05:20.182 [22826:1]: The following fields in GENERATOR are missing: O2, F2, O3, F3, O4, F4, WMOD, WPF
└ @ PowerSystems /Users/jdlara/.julia/packages/PowerSystems/a9ndT/src/parsers/pm_io/pti.jl:1227
┌ Info: 2021-09-28T17:05:20.182 [22826:1]: The following fields in BRANCH are missing: O2, F2, O3, F3, O4, F4
└ @ PowerSystems /Users/jdlara/.julia/packages/PowerSystems/a9ndT/src/parsers/pm_io/pti.jl:1227
┌ Info: 2021-09-28T17:05:20.182 [22826:1]: The following fields in BRANCH are missing: O2, F2, O3, F3, O4, F4
└ @ PowerSystems /Users/jdlara/.julia/packages/PowerSystems/a9ndT/src/parsers/pm_io/pti.jl:1227
┌ Info: 2021-09-28T17:05:20.183 [22826:1]: The following fields in BRANCH are missing: O2, F2, O3, F3, O4, F4
└ @ PowerSystems /Users/jdlara/.julia/packages/PowerSystems/a9ndT/src/parsers/pm_io/pti.jl:1227
┌ Info: 2021-09-28T17:05:20.183 [22826:1]: angmin and angmax values are 0, widening these values on branch 1 to +/- 60.0 deg.
└ @ PowerSystems /Users/jdlara/.julia/packages/PowerSystems/a9ndT/src/parsers/pm_io/data.jl:1077
┌ Info: 2021-09-28T17:05:20.183 [22826:1]: angmin and angmax values are 0, widening these values on branch 2 to +/- 60.0 deg.
└ @ PowerSystems /Users/jdlara/.julia/packages/PowerSystems/a9ndT/src/parsers/pm_io/data.jl:1077
┌ Info: 2021-09-28T17:05:20.183 [22826:1]: angmin and angmax values are 0, widening these values on branch 3 to +/- 60.0 deg.
└ @ PowerSystems /Users/jdlara/.julia/packages/PowerSystems/a9ndT/src/parsers/pm_io/data.jl:1077
┌ Info: 2021-09-28T17:05:20.183 [22826:1]: Constructing System from Power Models
│   data["name"] = threebusmulti_lessload
│   data["source_type"] = pti
└ @ PowerSystems /Users/jdlara/.julia/packages/PowerSystems/a9ndT/src/parsers/power_models_data.jl:52
┌ Info: 2021-09-28T17:05:20.247 [22826:1]: Reading bus data
└ @ PowerSystems /Users/jdlara/.julia/packages/PowerSystems/a9ndT/src/parsers/power_models_data.jl:173
┌ Info: 2021-09-28T17:05:20.325 [22826:1]: Reading generator data
└ @ PowerSystems /Users/jdlara/.julia/packages/PowerSystems/a9ndT/src/parsers/power_models_data.jl:488
┌ Info: 2021-09-28T17:05:20.328 [22826:1]: Reading branch data
└ @ PowerSystems /Users/jdlara/.julia/packages/PowerSystems/a9ndT/src/parsers/power_models_data.jl:632
┌ Warning: 2021-09-28T17:05:20.357 [22826:1]: Rate 250.0 MW for BUS 1-BUS 2-i_1 is larger than the max expected in the range of (min = 47.0, max = 52.0).
└ @ PowerSystems /Users/jdlara/.julia/packages/PowerSystems/a9ndT/src/utils/IO/branchdata_checks.jl:148
┌ Warning: 2021-09-28T17:05:20.358 [22826:1]: Rate 250.0 MW for BUS 1-BUS 3-i_2 is larger than the max expected in the range of (min = 47.0, max = 52.0).
└ @ PowerSystems /Users/jdlara/.julia/packages/PowerSystems/a9ndT/src/utils/IO/branchdata_checks.jl:148
┌ Warning: 2021-09-28T17:05:20.358 [22826:1]: Rate 250.0 MW for BUS 2-BUS 3-i_3 is larger than the max expected in the range of (min = 47.0, max = 52.0).
└ @ PowerSystems /Users/jdlara/.julia/packages/PowerSystems/a9ndT/src/utils/IO/branchdata_checks.jl:148
┌ Info: 2021-09-28T17:05:20.358 [22826:1]: Reading branch data
└ @ PowerSystems /Users/jdlara/.julia/packages/PowerSystems/a9ndT/src/parsers/power_models_data.jl:694
┌ Info: 2021-09-28T17:05:20.358 [22826:1]: Reading DC Line data
└ @ PowerSystems /Users/jdlara/.julia/packages/PowerSystems/a9ndT/src/parsers/power_models_data.jl:666
┌ Info: 2021-09-28T17:05:20.358 [22826:1]: Reading storage data
└ @ PowerSystems /Users/jdlara/.julia/packages/PowerSystems/a9ndT/src/parsers/power_models_data.jl:713
┌ Info: 2021-09-28T17:05:21.852 [22826:1]: Generators provided in .dyr, without a generator in .raw file will be skipped.
└ @ PowerSystems /Users/jdlara/.julia/packages/PowerSystems/a9ndT/src/parsers/psse_dynamic_data.jl:389
┌ Warning: 2021-09-28T17:05:22.610 [22826:1]: struct DynamicGenerator does not exist in validation configuration file, validation skipped
└ @ InfrastructureSystems /Users/jdlara/.julia/packages/InfrastructureSystems/7AXsY/src/validation.jl:51
┌ Warning: 2021-09-28T17:05:23.163 [22826:1]: struct DynamicGenerator does not exist in validation configuration file, validation skipped
└ @ InfrastructureSystems /Users/jdlara/.julia/packages/InfrastructureSystems/7AXsY/src/validation.jl:51
┌ Info: 2021-09-28T17:05:23.706 [22826:1]: Unit System changed to UnitSystem.DEVICE_BASE = 1
└ @ PowerSystems /Users/jdlara/.julia/packages/PowerSystems/a9ndT/src/base.jl:339
┌ Info: 2021-09-28T17:05:32.276 [22826:1]: Unit System changed to UnitSystem.DEVICE_BASE = 1
└ @ PowerSystems /Users/jdlara/.julia/packages/PowerSystems/a9ndT/src/base.jl:339
┌ Info: 2021-09-28T17:05:34.741 [22826:1]: Unit System changed to UnitSystem.DEVICE_BASE = 1
└ @ PowerSystems /Users/jdlara/.julia/packages/PowerSystems/a9ndT/src/base.jl:339
┌ Info: 2021-09-28T17:05:41.751 [22826:1]: Unit System changed to UnitSystem.DEVICE_BASE = 1
└ @ PowerSystems /Users/jdlara/.julia/packages/PowerSystems/a9ndT/src/base.jl:339
┌ Info: 2021-09-28T17:05:41.943 [22826:1]: Unit System changed to UnitSystem.DEVICE_BASE = 1
└ @ PowerSystems /Users/jdlara/.julia/packages/PowerSystems/a9ndT/src/base.jl:339
┌ Info: 2021-09-28T17:05:42.080 [22826:1]: Unit System changed to UnitSystem.DEVICE_BASE = 1
└ @ PowerSystems /Users/jdlara/.julia/packages/PowerSystems/a9ndT/src/base.jl:339
┌ Info: 2021-09-28T17:05:42.296 [22826:1]: Unit System changed to UnitSystem.DEVICE_BASE = 1
└ @ PowerSystems /Users/jdlara/.julia/packages/PowerSystems/a9ndT/src/base.jl:339
┌ Info: 2021-09-28T17:05:42.891 [22826:1]: Validating connectivity with Goderya algorithm
└ @ PowerSystems /Users/jdlara/.julia/packages/PowerSystems/a9ndT/src/utils/network_calculations/ybus_calculations.jl:296
┌ Info: 2021-09-28T17:05:42.891 [22826:1]: The System has no islands
└ @ PowerSystems /Users/jdlara/.julia/packages/PowerSystems/a9ndT/src/utils/network_calculations/ybus_calculations.jl:242
┌ Info: 2021-09-28T17:05:42.891 [22826:1]: Validating connectivity with Goderya algorithm
└ @ PowerSystems /Users/jdlara/.julia/packages/PowerSystems/a9ndT/src/utils/network_calculations/ybus_calculations.jl:296
┌ Info: 2021-09-28T17:05:42.892 [22826:1]: The System has no islands
└ @ PowerSystems /Users/jdlara/.julia/packages/PowerSystems/a9ndT/src/utils/network_calculations/ybus_calculations.jl:242
┌ Warning: 2021-09-28T17:05:42.892 [22826:1]: The reference Bus has a Source connected to it. The frequency reference model will change to FixedFrequency
└ @ PowerSimulationsDynamics /Users/jdlara/.julia/dev/PowerSimulationsDynamics/src/base/frequency_reference.jl:57
┌ Info: 2021-09-28T17:05:44.863 [22826:1]: The PSS(R)E parser currently supports buses, loads, shunts, generators, branches, transformers, and dc lines
└ @ PowerSystems /Users/jdlara/.julia/packages/PowerSystems/a9ndT/src/parsers/pm_io/common.jl:25
┌ Info: 2021-09-28T17:05:44.863 [22826:1]: The PSS(R)E parser currently supports buses, loads, shunts, generators, branches, transformers, and dc lines
└ @ PowerSystems /Users/jdlara/.julia/packages/PowerSystems/a9ndT/src/parsers/pm_io/psse.jl:1035
┌ Info: 2021-09-28T17:05:44.865 [22826:1]: angmin and angmax values are 0, widening these values on branch 1 to +/- 60.0 deg.
└ @ PowerSystems /Users/jdlara/.julia/packages/PowerSystems/a9ndT/src/parsers/pm_io/data.jl:1077
┌ Info: 2021-09-28T17:05:44.865 [22826:1]: angmin and angmax values are 0, widening these values on branch 2 to +/- 60.0 deg.
└ @ PowerSystems /Users/jdlara/.julia/packages/PowerSystems/a9ndT/src/parsers/pm_io/data.jl:1077
┌ Info: 2021-09-28T17:05:44.865 [22826:1]: angmin and angmax values are 0, widening these values on branch 3 to +/- 60.0 deg.
└ @ PowerSystems /Users/jdlara/.julia/packages/PowerSystems/a9ndT/src/parsers/pm_io/data.jl:1077
┌ Info: 2021-09-28T17:05:44.865 [22826:1]: Constructing System from Power Models
│   data["name"] = threebusinverter
│   data["source_type"] = pti
└ @ PowerSystems /Users/jdlara/.julia/packages/PowerSystems/a9ndT/src/parsers/power_models_data.jl:52
┌ Info: 2021-09-28T17:05:44.870 [22826:1]: Reading bus data
└ @ PowerSystems /Users/jdlara/.julia/packages/PowerSystems/a9ndT/src/parsers/power_models_data.jl:173
┌ Info: 2021-09-28T17:05:44.870 [22826:1]: Reading generator data
└ @ PowerSystems /Users/jdlara/.julia/packages/PowerSystems/a9ndT/src/parsers/power_models_data.jl:488
┌ Info: 2021-09-28T17:05:44.873 [22826:1]: Reading branch data
└ @ PowerSystems /Users/jdlara/.julia/packages/PowerSystems/a9ndT/src/parsers/power_models_data.jl:632
┌ Info: 2021-09-28T17:05:44.873 [22826:1]: Reading branch data
└ @ PowerSystems /Users/jdlara/.julia/packages/PowerSystems/a9ndT/src/parsers/power_models_data.jl:694
┌ Info: 2021-09-28T17:05:44.873 [22826:1]: Reading DC Line data
└ @ PowerSystems /Users/jdlara/.julia/packages/PowerSystems/a9ndT/src/parsers/power_models_data.jl:666
┌ Info: 2021-09-28T17:05:44.873 [22826:1]: Reading storage data
└ @ PowerSystems /Users/jdlara/.julia/packages/PowerSystems/a9ndT/src/parsers/power_models_data.jl:713
┌ Info: 2021-09-28T17:05:44.874 [22826:1]: Validating connectivity with Goderya algorithm
└ @ PowerSystems /Users/jdlara/.julia/packages/PowerSystems/a9ndT/src/utils/network_calculations/ybus_calculations.jl:296
┌ Info: 2021-09-28T17:05:44.874 [22826:1]: The System has no islands
└ @ PowerSystems /Users/jdlara/.julia/packages/PowerSystems/a9ndT/src/utils/network_calculations/ybus_calculations.jl:242
┌ Info: 2021-09-28T17:05:44.874 [22826:1]: Validating connectivity with Goderya algorithm
└ @ PowerSystems /Users/jdlara/.julia/packages/PowerSystems/a9ndT/src/utils/network_calculations/ybus_calculations.jl:296
┌ Info: 2021-09-28T17:05:44.874 [22826:1]: The System has no islands
└ @ PowerSystems /Users/jdlara/.julia/packages/PowerSystems/a9ndT/src/utils/network_calculations/ybus_calculations.jl:242
┌ Warning: 2021-09-28T17:05:44.874 [22826:1]: The reference Bus has a Source connected to it. The frequency reference model will change to FixedFrequency
└ @ PowerSimulationsDynamics /Users/jdlara/.julia/dev/PowerSimulationsDynamics/src/base/frequency_reference.jl:57
┌ Info: 2021-09-28T17:05:44.874 [22826:1]: Validating connectivity with Goderya algorithm
└ @ PowerSystems /Users/jdlara/.julia/packages/PowerSystems/a9ndT/src/utils/network_calculations/ybus_calculations.jl:296
┌ Info: 2021-09-28T17:05:44.874 [22826:1]: The System has no islands
└ @ PowerSystems /Users/jdlara/.julia/packages/PowerSystems/a9ndT/src/utils/network_calculations/ybus_calculations.jl:242
┌ Info: 2021-09-28T17:05:44.964 [22826:1]: The PSS(R)E parser currently supports buses, loads, shunts, generators, branches, transformers, and dc lines
└ @ PowerSystems /Users/jdlara/.julia/packages/PowerSystems/a9ndT/src/parsers/pm_io/common.jl:25
┌ Info: 2021-09-28T17:05:44.964 [22826:1]: The PSS(R)E parser currently supports buses, loads, shunts, generators, branches, transformers, and dc lines
└ @ PowerSystems /Users/jdlara/.julia/packages/PowerSystems/a9ndT/src/parsers/pm_io/psse.jl:1035
┌ Info: 2021-09-28T17:05:44.966 [22826:1]: angmin and angmax values are 0, widening these values on branch 1 to +/- 60.0 deg.
└ @ PowerSystems /Users/jdlara/.julia/packages/PowerSystems/a9ndT/src/parsers/pm_io/data.jl:1077
┌ Info: 2021-09-28T17:05:44.966 [22826:1]: angmin and angmax values are 0, widening these values on branch 2 to +/- 60.0 deg.
└ @ PowerSystems /Users/jdlara/.julia/packages/PowerSystems/a9ndT/src/parsers/pm_io/data.jl:1077
┌ Info: 2021-09-28T17:05:44.966 [22826:1]: angmin and angmax values are 0, widening these values on branch 3 to +/- 60.0 deg.
└ @ PowerSystems /Users/jdlara/.julia/packages/PowerSystems/a9ndT/src/parsers/pm_io/data.jl:1077
┌ Info: 2021-09-28T17:05:44.966 [22826:1]: Constructing System from Power Models
│   data["name"] = threebusinverter
│   data["source_type"] = pti
└ @ PowerSystems /Users/jdlara/.julia/packages/PowerSystems/a9ndT/src/parsers/power_models_data.jl:52
┌ Info: 2021-09-28T17:05:44.971 [22826:1]: Reading bus data
└ @ PowerSystems /Users/jdlara/.julia/packages/PowerSystems/a9ndT/src/parsers/power_models_data.jl:173
┌ Info: 2021-09-28T17:05:44.972 [22826:1]: Reading generator data
└ @ PowerSystems /Users/jdlara/.julia/packages/PowerSystems/a9ndT/src/parsers/power_models_data.jl:488
┌ Info: 2021-09-28T17:05:44.974 [22826:1]: Reading branch data
└ @ PowerSystems /Users/jdlara/.julia/packages/PowerSystems/a9ndT/src/parsers/power_models_data.jl:632
┌ Info: 2021-09-28T17:05:44.974 [22826:1]: Reading branch data
└ @ PowerSystems /Users/jdlara/.julia/packages/PowerSystems/a9ndT/src/parsers/power_models_data.jl:694
┌ Info: 2021-09-28T17:05:44.974 [22826:1]: Reading DC Line data
└ @ PowerSystems /Users/jdlara/.julia/packages/PowerSystems/a9ndT/src/parsers/power_models_data.jl:666
┌ Info: 2021-09-28T17:05:44.974 [22826:1]: Reading storage data
└ @ PowerSystems /Users/jdlara/.julia/packages/PowerSystems/a9ndT/src/parsers/power_models_data.jl:713
┌ Info: 2021-09-28T17:05:44.974 [22826:1]: Validating connectivity with Goderya algorithm
└ @ PowerSystems /Users/jdlara/.julia/packages/PowerSystems/a9ndT/src/utils/network_calculations/ybus_calculations.jl:296
┌ Info: 2021-09-28T17:05:44.974 [22826:1]: The System has no islands
└ @ PowerSystems /Users/jdlara/.julia/packages/PowerSystems/a9ndT/src/utils/network_calculations/ybus_calculations.jl:242
┌ Info: 2021-09-28T17:05:44.974 [22826:1]: The System has no islands
└ @ PowerSystems /Users/jdlara/.julia/packages/PowerSystems/a9ndT/src/utils/network_calculations/ybus_calculations.jl:242
┌ Info: 2021-09-28T17:05:44.974 [22826:1]: The System has no islands
└ @ PowerSystems /Users/jdlara/.julia/packages/PowerSystems/a9ndT/src/utils/network_calculations/ybus_calculations.jl:242
┌ Info: 2021-09-28T17:05:45.035 [22826:1]: The PSS(R)E parser currently supports buses, loads, shunts, generators, branches, transformers, and dc lines
└ @ PowerSystems /Users/jdlara/.julia/packages/PowerSystems/a9ndT/src/parsers/pm_io/common.jl:25
┌ Info: 2021-09-28T17:05:45.035 [22826:1]: The PSS(R)E parser currently supports buses, loads, shunts, generators, branches, transformers, and dc lines
└ @ PowerSystems /Users/jdlara/.julia/packages/PowerSystems/a9ndT/src/parsers/pm_io/psse.jl:1035
┌ Info: 2021-09-28T17:05:45.036 [22826:1]: angmin and angmax values are 0, widening these values on branch 1 to +/- 60.0 deg.
└ @ PowerSystems /Users/jdlara/.julia/packages/PowerSystems/a9ndT/src/parsers/pm_io/data.jl:1077
┌ Info: 2021-09-28T17:05:45.036 [22826:1]: the voltage setpoint on generator 1 does not match the value at bus 102
└ @ PowerSystems /Users/jdlara/.julia/packages/PowerSystems/a9ndT/src/parsers/pm_io/data.jl:1796
┌ Info: 2021-09-28T17:05:45.036 [22826:1]: Constructing System from Power Models
│   data["name"] = omib
│   data["source_type"] = pti
└ @ PowerSystems /Users/jdlara/.julia/packages/PowerSystems/a9ndT/src/parsers/power_models_data.jl:52
┌ Info: 2021-09-28T17:05:45.041 [22826:1]: Reading bus data
└ @ PowerSystems /Users/jdlara/.julia/packages/PowerSystems/a9ndT/src/parsers/power_models_data.jl:173
┌ Info: 2021-09-28T17:05:45.041 [22826:1]: Reading generator data
└ @ PowerSystems /Users/jdlara/.julia/packages/PowerSystems/a9ndT/src/parsers/power_models_data.jl:488
┌ Info: 2021-09-28T17:05:45.043 [22826:1]: Reading branch data
└ @ PowerSystems /Users/jdlara/.julia/packages/PowerSystems/a9ndT/src/parsers/power_models_data.jl:632
┌ Info: 2021-09-28T17:05:45.043 [22826:1]: Reading branch data
└ @ PowerSystems /Users/jdlara/.julia/packages/PowerSystems/a9ndT/src/parsers/power_models_data.jl:694
┌ Info: 2021-09-28T17:05:45.044 [22826:1]: Reading DC Line data
└ @ PowerSystems /Users/jdlara/.julia/packages/PowerSystems/a9ndT/src/parsers/power_models_data.jl:666
┌ Info: 2021-09-28T17:05:45.044 [22826:1]: Reading storage data
└ @ PowerSystems /Users/jdlara/.julia/packages/PowerSystems/a9ndT/src/parsers/power_models_data.jl:713
┌ Info: 2021-09-28T17:05:45.195 [22826:1]: Validating connectivity with Goderya algorithm
└ @ PowerSystems /Users/jdlara/.julia/packages/PowerSystems/a9ndT/src/utils/network_calculations/ybus_calculations.jl:296
┌ Info: 2021-09-28T17:05:45.195 [22826:1]: The System has no islands
└ @ PowerSystems /Users/jdlara/.julia/packages/PowerSystems/a9ndT/src/utils/network_calculations/ybus_calculations.jl:242
┌ Info: 2021-09-28T17:05:45.196 [22826:1]: The System has no islands
└ @ PowerSystems /Users/jdlara/.julia/packages/PowerSystems/a9ndT/src/utils/network_calculations/ybus_calculations.jl:242
┌ Info: 2021-09-28T17:05:47.027 [22826:1]: Unit System changed to UnitSystem.DEVICE_BASE = 1
└ @ PowerSystems /Users/jdlara/.julia/packages/PowerSystems/a9ndT/src/base.jl:339
┌ Info: 2021-09-28T17:05:59.465 [22826:1]: removing test files
└ @ Main /Users/jdlara/.julia/dev/PowerSimulationsDynamics/test/test_case01_OMIB.jl:86
┌ Info: 2021-09-28T17:06:00.559 [22826:1]: Unit System changed to UnitSystem.DEVICE_BASE = 1
└ @ PowerSystems /Users/jdlara/.julia/packages/PowerSystems/a9ndT/src/base.jl:339
┌ Info: 2021-09-28T17:06:21.390 [22826:1]: removing test files
└ @ Main /Users/jdlara/.julia/dev/PowerSimulationsDynamics/test/test_case01_OMIB.jl:166
┌ Info: 2021-09-28T17:06:21.446 [22826:1]: The PSS(R)E parser currently supports buses, loads, shunts, generators, branches, transformers, and dc lines
└ @ PowerSystems /Users/jdlara/.julia/packages/PowerSystems/a9ndT/src/parsers/pm_io/common.jl:25
┌ Info: 2021-09-28T17:06:21.446 [22826:1]: The PSS(R)E parser currently supports buses, loads, shunts, generators, branches, transformers, and dc lines
└ @ PowerSystems /Users/jdlara/.julia/packages/PowerSystems/a9ndT/src/parsers/pm_io/psse.jl:1035
┌ Info: 2021-09-28T17:06:21.453 [22826:1]: angmin and angmax values are 0, widening these values on branch 1 to +/- 60.0 deg.
└ @ PowerSystems /Users/jdlara/.julia/packages/PowerSystems/a9ndT/src/parsers/pm_io/data.jl:1077
┌ Info: 2021-09-28T17:06:21.453 [22826:1]: angmin and angmax values are 0, widening these values on branch 2 to +/- 60.0 deg.
└ @ PowerSystems /Users/jdlara/.julia/packages/PowerSystems/a9ndT/src/parsers/pm_io/data.jl:1077
┌ Info: 2021-09-28T17:06:21.454 [22826:1]: angmin and angmax values are 0, widening these values on branch 3 to +/- 60.0 deg.
└ @ PowerSystems /Users/jdlara/.julia/packages/PowerSystems/a9ndT/src/parsers/pm_io/data.jl:1077
┌ Info: 2021-09-28T17:06:21.454 [22826:1]: Constructing System from Power Models
│   data["name"] = threebusnetwork
│   data["source_type"] = pti
└ @ PowerSystems /Users/jdlara/.julia/packages/PowerSystems/a9ndT/src/parsers/power_models_data.jl:52
┌ Info: 2021-09-28T17:06:21.460 [22826:1]: Reading bus data
└ @ PowerSystems /Users/jdlara/.julia/packages/PowerSystems/a9ndT/src/parsers/power_models_data.jl:173
┌ Info: 2021-09-28T17:06:21.460 [22826:1]: Reading generator data
└ @ PowerSystems /Users/jdlara/.julia/packages/PowerSystems/a9ndT/src/parsers/power_models_data.jl:488
┌ Info: 2021-09-28T17:06:21.462 [22826:1]: Reading branch data
└ @ PowerSystems /Users/jdlara/.julia/packages/PowerSystems/a9ndT/src/parsers/power_models_data.jl:632
┌ Info: 2021-09-28T17:06:21.462 [22826:1]: Reading branch data
└ @ PowerSystems /Users/jdlara/.julia/packages/PowerSystems/a9ndT/src/parsers/power_models_data.jl:694
┌ Info: 2021-09-28T17:06:21.462 [22826:1]: Reading DC Line data
└ @ PowerSystems /Users/jdlara/.julia/packages/PowerSystems/a9ndT/src/parsers/power_models_data.jl:666
┌ Info: 2021-09-28T17:06:21.462 [22826:1]: Reading storage data
└ @ PowerSystems /Users/jdlara/.julia/packages/PowerSystems/a9ndT/src/parsers/power_models_data.jl:713
┌ Info: 2021-09-28T17:06:21.552 [22826:1]: Unit System changed to UnitSystem.SYSTEM_BASE = 0
└ @ PowerSystems /Users/jdlara/.julia/packages/PowerSystems/a9ndT/src/base.jl:339
┌ Info: 2021-09-28T17:06:21.552 [22826:1]: Validating connectivity with Goderya algorithm
└ @ PowerSystems /Users/jdlara/.julia/packages/PowerSystems/a9ndT/src/utils/network_calculations/ybus_calculations.jl:296
┌ Info: 2021-09-28T17:06:21.552 [22826:1]: The System has no islands
└ @ PowerSystems /Users/jdlara/.julia/packages/PowerSystems/a9ndT/src/utils/network_calculations/ybus_calculations.jl:242
┌ Info: 2021-09-28T17:06:21.552 [22826:1]: PowerFlow solve converged, the results have been stored in the system
└ @ PowerSystems /Users/jdlara/.julia/packages/PowerSystems/a9ndT/src/utils/power_flow.jl:312
┌ Info: 2021-09-28T17:06:21.553 [22826:1]: Unit System changed to UnitSystem.SYSTEM_BASE = 0
└ @ PowerSystems /Users/jdlara/.julia/packages/PowerSystems/a9ndT/src/base.jl:345
┌ Warning: 2021-09-28T17:06:21.740 [22826:1]: Assignment to `case_gen` in soft scope is ambiguous because a global variable by the same name exists: `case_gen` will be treated as a new local. Disambiguate by using `local case_gen` to suppress this warning or `global case_gen` to assign to the existing global variable.
└ @ nothing /Users/jdlara/.julia/dev/PowerSimulationsDynamics/test/data_tests/test02.jl:30
┌ Info: 2021-09-28T17:06:21.926 [22826:1]: Validating connectivity with Goderya algorithm
└ @ PowerSystems /Users/jdlara/.julia/packages/PowerSystems/a9ndT/src/utils/network_calculations/ybus_calculations.jl:296
┌ Info: 2021-09-28T17:06:21.926 [22826:1]: The System has no islands
└ @ PowerSystems /Users/jdlara/.julia/packages/PowerSystems/a9ndT/src/utils/network_calculations/ybus_calculations.jl:242
┌ Info: 2021-09-28T17:06:21.926 [22826:1]: The System has no islands
└ @ PowerSystems /Users/jdlara/.julia/packages/PowerSystems/a9ndT/src/utils/network_calculations/ybus_calculations.jl:242
┌ Info: 2021-09-28T17:06:22.219 [22826:1]: Unit System changed to UnitSystem.DEVICE_BASE = 1
└ @ PowerSystems /Users/jdlara/.julia/packages/PowerSystems/a9ndT/src/base.jl:339
┌ Info: 2021-09-28T17:06:28.692 [22826:1]: removing test files
└ @ Main /Users/jdlara/.julia/dev/PowerSimulationsDynamics/test/test_case02_oneDoneQ.jl:78
┌ Info: 2021-09-28T17:06:28.969 [22826:1]: Unit System changed to UnitSystem.DEVICE_BASE = 1
└ @ PowerSystems /Users/jdlara/.julia/packages/PowerSystems/a9ndT/src/base.jl:339
┌ Info: 2021-09-28T17:06:45.440 [22826:1]: removing test files
└ @ Main /Users/jdlara/.julia/dev/PowerSimulationsDynamics/test/test_case02_oneDoneQ.jl:137
┌ Info: 2021-09-28T17:06:45.530 [22826:1]: The PSS(R)E parser currently supports buses, loads, shunts, generators, branches, transformers, and dc lines
└ @ PowerSystems /Users/jdlara/.julia/packages/PowerSystems/a9ndT/src/parsers/pm_io/common.jl:25
┌ Info: 2021-09-28T17:06:45.530 [22826:1]: The PSS(R)E parser currently supports buses, loads, shunts, generators, branches, transformers, and dc lines
└ @ PowerSystems /Users/jdlara/.julia/packages/PowerSystems/a9ndT/src/parsers/pm_io/psse.jl:1035
┌ Info: 2021-09-28T17:06:45.531 [22826:1]: angmin and angmax values are 0, widening these values on branch 1 to +/- 60.0 deg.
└ @ PowerSystems /Users/jdlara/.julia/packages/PowerSystems/a9ndT/src/parsers/pm_io/data.jl:1077
┌ Info: 2021-09-28T17:06:45.531 [22826:1]: angmin and angmax values are 0, widening these values on branch 2 to +/- 60.0 deg.
└ @ PowerSystems /Users/jdlara/.julia/packages/PowerSystems/a9ndT/src/parsers/pm_io/data.jl:1077
┌ Info: 2021-09-28T17:06:45.531 [22826:1]: angmin and angmax values are 0, widening these values on branch 3 to +/- 60.0 deg.
└ @ PowerSystems /Users/jdlara/.julia/packages/PowerSystems/a9ndT/src/parsers/pm_io/data.jl:1077
┌ Info: 2021-09-28T17:06:45.531 [22826:1]: Constructing System from Power Models
│   data["name"] = threebusnetwork
│   data["source_type"] = pti
└ @ PowerSystems /Users/jdlara/.julia/packages/PowerSystems/a9ndT/src/parsers/power_models_data.jl:52
┌ Info: 2021-09-28T17:06:45.539 [22826:1]: Reading bus data
└ @ PowerSystems /Users/jdlara/.julia/packages/PowerSystems/a9ndT/src/parsers/power_models_data.jl:173
┌ Info: 2021-09-28T17:06:45.539 [22826:1]: Reading generator data
└ @ PowerSystems /Users/jdlara/.julia/packages/PowerSystems/a9ndT/src/parsers/power_models_data.jl:488
┌ Info: 2021-09-28T17:06:45.545 [22826:1]: Reading branch data
└ @ PowerSystems /Users/jdlara/.julia/packages/PowerSystems/a9ndT/src/parsers/power_models_data.jl:632
┌ Info: 2021-09-28T17:06:45.545 [22826:1]: Reading branch data
└ @ PowerSystems /Users/jdlara/.julia/packages/PowerSystems/a9ndT/src/parsers/power_models_data.jl:694
┌ Info: 2021-09-28T17:06:45.545 [22826:1]: Reading DC Line data
└ @ PowerSystems /Users/jdlara/.julia/packages/PowerSystems/a9ndT/src/parsers/power_models_data.jl:666
┌ Info: 2021-09-28T17:06:45.546 [22826:1]: Reading storage data
└ @ PowerSystems /Users/jdlara/.julia/packages/PowerSystems/a9ndT/src/parsers/power_models_data.jl:713
┌ Warning: 2021-09-28T17:06:45.719 [22826:1]: Assignment to `case_gen` in soft scope is ambiguous because a global variable by the same name exists: `case_gen` will be treated as a new local. Disambiguate by using `local case_gen` to suppress this warning or `global case_gen` to assign to the existing global variable.
└ @ nothing /Users/jdlara/.julia/dev/PowerSimulationsDynamics/test/data_tests/test03.jl:28
┌ Info: 2021-09-28T17:06:46.917 [22826:1]: Validating connectivity with Goderya algorithm
└ @ PowerSystems /Users/jdlara/.julia/packages/PowerSystems/a9ndT/src/utils/network_calculations/ybus_calculations.jl:296
┌ Info: 2021-09-28T17:06:46.917 [22826:1]: The System has no islands
└ @ PowerSystems /Users/jdlara/.julia/packages/PowerSystems/a9ndT/src/utils/network_calculations/ybus_calculations.jl:242
┌ Info: 2021-09-28T17:06:46.917 [22826:1]: The System has no islands
└ @ PowerSystems /Users/jdlara/.julia/packages/PowerSystems/a9ndT/src/utils/network_calculations/ybus_calculations.jl:242
┌ Info: 2021-09-28T17:06:47.426 [22826:1]: Unit System changed to UnitSystem.DEVICE_BASE = 1
└ @ PowerSystems /Users/jdlara/.julia/packages/PowerSystems/a9ndT/src/base.jl:339
┌ Info: 2021-09-28T17:06:49.968 [22826:1]: removing test files
└ @ Main /Users/jdlara/.julia/dev/PowerSimulationsDynamics/test/test_case03_simple_marconato.jl:80
┌ Info: 2021-09-28T17:06:50.252 [22826:1]: Unit System changed to UnitSystem.DEVICE_BASE = 1
└ @ PowerSystems /Users/jdlara/.julia/packages/PowerSystems/a9ndT/src/base.jl:339
┌ Info: 2021-09-28T17:07:04.811 [22826:1]: removing test files
└ @ Main /Users/jdlara/.julia/dev/PowerSimulationsDynamics/test/test_case03_simple_marconato.jl:139
┌ Info: 2021-09-28T17:07:04.867 [22826:1]: The PSS(R)E parser currently supports buses, loads, shunts, generators, branches, transformers, and dc lines
└ @ PowerSystems /Users/jdlara/.julia/packages/PowerSystems/a9ndT/src/parsers/pm_io/common.jl:25
┌ Info: 2021-09-28T17:07:04.867 [22826:1]: The PSS(R)E parser currently supports buses, loads, shunts, generators, branches, transformers, and dc lines
└ @ PowerSystems /Users/jdlara/.julia/packages/PowerSystems/a9ndT/src/parsers/pm_io/psse.jl:1035
┌ Info: 2021-09-28T17:07:04.868 [22826:1]: angmin and angmax values are 0, widening these values on branch 1 to +/- 60.0 deg.
└ @ PowerSystems /Users/jdlara/.julia/packages/PowerSystems/a9ndT/src/parsers/pm_io/data.jl:1077
┌ Info: 2021-09-28T17:07:04.868 [22826:1]: angmin and angmax values are 0, widening these values on branch 2 to +/- 60.0 deg.
└ @ PowerSystems /Users/jdlara/.julia/packages/PowerSystems/a9ndT/src/parsers/pm_io/data.jl:1077
┌ Info: 2021-09-28T17:07:04.868 [22826:1]: angmin and angmax values are 0, widening these values on branch 3 to +/- 60.0 deg.
└ @ PowerSystems /Users/jdlara/.julia/packages/PowerSystems/a9ndT/src/parsers/pm_io/data.jl:1077
┌ Info: 2021-09-28T17:07:04.868 [22826:1]: Constructing System from Power Models
│   data["name"] = threebusnetwork
│   data["source_type"] = pti
└ @ PowerSystems /Users/jdlara/.julia/packages/PowerSystems/a9ndT/src/parsers/power_models_data.jl:52
┌ Info: 2021-09-28T17:07:04.873 [22826:1]: Reading bus data
└ @ PowerSystems /Users/jdlara/.julia/packages/PowerSystems/a9ndT/src/parsers/power_models_data.jl:173
┌ Info: 2021-09-28T17:07:04.873 [22826:1]: Reading generator data
└ @ PowerSystems /Users/jdlara/.julia/packages/PowerSystems/a9ndT/src/parsers/power_models_data.jl:488
┌ Info: 2021-09-28T17:07:04.876 [22826:1]: Reading branch data
└ @ PowerSystems /Users/jdlara/.julia/packages/PowerSystems/a9ndT/src/parsers/power_models_data.jl:632
┌ Info: 2021-09-28T17:07:04.876 [22826:1]: Reading branch data
└ @ PowerSystems /Users/jdlara/.julia/packages/PowerSystems/a9ndT/src/parsers/power_models_data.jl:694
┌ Info: 2021-09-28T17:07:04.876 [22826:1]: Reading DC Line data
└ @ PowerSystems /Users/jdlara/.julia/packages/PowerSystems/a9ndT/src/parsers/power_models_data.jl:666
┌ Info: 2021-09-28T17:07:04.876 [22826:1]: Reading storage data
└ @ PowerSystems /Users/jdlara/.julia/packages/PowerSystems/a9ndT/src/parsers/power_models_data.jl:713
┌ Warning: 2021-09-28T17:07:04.971 [22826:1]: Assignment to `case_gen` in soft scope is ambiguous because a global variable by the same name exists: `case_gen` will be treated as a new local. Disambiguate by using `local case_gen` to suppress this warning or `global case_gen` to assign to the existing global variable.
└ @ nothing /Users/jdlara/.julia/dev/PowerSimulationsDynamics/test/data_tests/test04.jl:28
┌ Info: 2021-09-28T17:07:05.612 [22826:1]: Validating connectivity with Goderya algorithm
└ @ PowerSystems /Users/jdlara/.julia/packages/PowerSystems/a9ndT/src/utils/network_calculations/ybus_calculations.jl:296
┌ Info: 2021-09-28T17:07:05.612 [22826:1]: The System has no islands
└ @ PowerSystems /Users/jdlara/.julia/packages/PowerSystems/a9ndT/src/utils/network_calculations/ybus_calculations.jl:242
┌ Info: 2021-09-28T17:07:05.612 [22826:1]: The System has no islands
└ @ PowerSystems /Users/jdlara/.julia/packages/PowerSystems/a9ndT/src/utils/network_calculations/ybus_calculations.jl:242
┌ Info: 2021-09-28T17:07:05.937 [22826:1]: Unit System changed to UnitSystem.DEVICE_BASE = 1
└ @ PowerSystems /Users/jdlara/.julia/packages/PowerSystems/a9ndT/src/base.jl:339
┌ Info: 2021-09-28T17:07:08.318 [22826:1]: removing test files
└ @ Main /Users/jdlara/.julia/dev/PowerSimulationsDynamics/test/test_case04_marconato.jl:77
┌ Info: 2021-09-28T17:07:08.542 [22826:1]: Unit System changed to UnitSystem.DEVICE_BASE = 1
└ @ PowerSystems /Users/jdlara/.julia/packages/PowerSystems/a9ndT/src/base.jl:339
┌ Info: 2021-09-28T17:07:22.902 [22826:1]: removing test files
└ @ Main /Users/jdlara/.julia/dev/PowerSimulationsDynamics/test/test_case04_marconato.jl:135
┌ Info: 2021-09-28T17:07:22.993 [22826:1]: The PSS(R)E parser currently supports buses, loads, shunts, generators, branches, transformers, and dc lines
└ @ PowerSystems /Users/jdlara/.julia/packages/PowerSystems/a9ndT/src/parsers/pm_io/common.jl:25
┌ Info: 2021-09-28T17:07:22.993 [22826:1]: The PSS(R)E parser currently supports buses, loads, shunts, generators, branches, transformers, and dc lines
└ @ PowerSystems /Users/jdlara/.julia/packages/PowerSystems/a9ndT/src/parsers/pm_io/psse.jl:1035
┌ Info: 2021-09-28T17:07:22.995 [22826:1]: angmin and angmax values are 0, widening these values on branch 1 to +/- 60.0 deg.
└ @ PowerSystems /Users/jdlara/.julia/packages/PowerSystems/a9ndT/src/parsers/pm_io/data.jl:1077
┌ Info: 2021-09-28T17:07:22.995 [22826:1]: angmin and angmax values are 0, widening these values on branch 2 to +/- 60.0 deg.
└ @ PowerSystems /Users/jdlara/.julia/packages/PowerSystems/a9ndT/src/parsers/pm_io/data.jl:1077
┌ Info: 2021-09-28T17:07:22.995 [22826:1]: angmin and angmax values are 0, widening these values on branch 3 to +/- 60.0 deg.
└ @ PowerSystems /Users/jdlara/.julia/packages/PowerSystems/a9ndT/src/parsers/pm_io/data.jl:1077
┌ Info: 2021-09-28T17:07:22.995 [22826:1]: Constructing System from Power Models
│   data["name"] = threebusnetwork
│   data["source_type"] = pti
└ @ PowerSystems /Users/jdlara/.julia/packages/PowerSystems/a9ndT/src/parsers/power_models_data.jl:52
┌ Info: 2021-09-28T17:07:23.004 [22826:1]: Reading bus data
└ @ PowerSystems /Users/jdlara/.julia/packages/PowerSystems/a9ndT/src/parsers/power_models_data.jl:173
┌ Info: 2021-09-28T17:07:23.006 [22826:1]: Reading generator data
└ @ PowerSystems /Users/jdlara/.julia/packages/PowerSystems/a9ndT/src/parsers/power_models_data.jl:488
┌ Info: 2021-09-28T17:07:23.010 [22826:1]: Reading branch data
└ @ PowerSystems /Users/jdlara/.julia/packages/PowerSystems/a9ndT/src/parsers/power_models_data.jl:632
┌ Info: 2021-09-28T17:07:23.010 [22826:1]: Reading branch data
└ @ PowerSystems /Users/jdlara/.julia/packages/PowerSystems/a9ndT/src/parsers/power_models_data.jl:694
┌ Info: 2021-09-28T17:07:23.010 [22826:1]: Reading DC Line data
└ @ PowerSystems /Users/jdlara/.julia/packages/PowerSystems/a9ndT/src/parsers/power_models_data.jl:666
┌ Info: 2021-09-28T17:07:23.010 [22826:1]: Reading storage data
└ @ PowerSystems /Users/jdlara/.julia/packages/PowerSystems/a9ndT/src/parsers/power_models_data.jl:713
┌ Warning: 2021-09-28T17:07:23.114 [22826:1]: Assignment to `case_gen` in soft scope is ambiguous because a global variable by the same name exists: `case_gen` will be treated as a new local. Disambiguate by using `local case_gen` to suppress this warning or `global case_gen` to assign to the existing global variable.
└ @ nothing /Users/jdlara/.julia/dev/PowerSimulationsDynamics/test/data_tests/test05.jl:28
┌ Info: 2021-09-28T17:07:23.916 [22826:1]: Validating connectivity with Goderya algorithm
└ @ PowerSystems /Users/jdlara/.julia/packages/PowerSystems/a9ndT/src/utils/network_calculations/ybus_calculations.jl:296
┌ Info: 2021-09-28T17:07:23.916 [22826:1]: The System has no islands
└ @ PowerSystems /Users/jdlara/.julia/packages/PowerSystems/a9ndT/src/utils/network_calculations/ybus_calculations.jl:242
┌ Info: 2021-09-28T17:07:23.917 [22826:1]: The System has no islands
└ @ PowerSystems /Users/jdlara/.julia/packages/PowerSystems/a9ndT/src/utils/network_calculations/ybus_calculations.jl:242
┌ Info: 2021-09-28T17:07:24.167 [22826:1]: Unit System changed to UnitSystem.DEVICE_BASE = 1
└ @ PowerSystems /Users/jdlara/.julia/packages/PowerSystems/a9ndT/src/base.jl:339
┌ Info: 2021-09-28T17:07:26.222 [22826:1]: removing test files
└ @ Main /Users/jdlara/.julia/dev/PowerSimulationsDynamics/test/test_case05_simple_anderson.jl:66
┌ Info: 2021-09-28T17:07:26.453 [22826:1]: Unit System changed to UnitSystem.DEVICE_BASE = 1
└ @ PowerSystems /Users/jdlara/.julia/packages/PowerSystems/a9ndT/src/base.jl:339
┌ Info: 2021-09-28T17:07:28.202 [22826:1]: removing test files
└ @ Main /Users/jdlara/.julia/dev/PowerSimulationsDynamics/test/test_case05_simple_anderson.jl:111
┌ Info: 2021-09-28T17:07:28.271 [22826:1]: The PSS(R)E parser currently supports buses, loads, shunts, generators, branches, transformers, and dc lines
└ @ PowerSystems /Users/jdlara/.julia/packages/PowerSystems/a9ndT/src/parsers/pm_io/common.jl:25
┌ Info: 2021-09-28T17:07:28.271 [22826:1]: The PSS(R)E parser currently supports buses, loads, shunts, generators, branches, transformers, and dc lines
└ @ PowerSystems /Users/jdlara/.julia/packages/PowerSystems/a9ndT/src/parsers/pm_io/psse.jl:1035
┌ Info: 2021-09-28T17:07:28.273 [22826:1]: angmin and angmax values are 0, widening these values on branch 1 to +/- 60.0 deg.
└ @ PowerSystems /Users/jdlara/.julia/packages/PowerSystems/a9ndT/src/parsers/pm_io/data.jl:1077
┌ Info: 2021-09-28T17:07:28.274 [22826:1]: angmin and angmax values are 0, widening these values on branch 2 to +/- 60.0 deg.
└ @ PowerSystems /Users/jdlara/.julia/packages/PowerSystems/a9ndT/src/parsers/pm_io/data.jl:1077
┌ Info: 2021-09-28T17:07:28.274 [22826:1]: angmin and angmax values are 0, widening these values on branch 3 to +/- 60.0 deg.
└ @ PowerSystems /Users/jdlara/.julia/packages/PowerSystems/a9ndT/src/parsers/pm_io/data.jl:1077
┌ Info: 2021-09-28T17:07:28.274 [22826:1]: Constructing System from Power Models
│   data["name"] = threebusnetwork
│   data["source_type"] = pti
└ @ PowerSystems /Users/jdlara/.julia/packages/PowerSystems/a9ndT/src/parsers/power_models_data.jl:52
┌ Info: 2021-09-28T17:07:28.282 [22826:1]: Reading bus data
└ @ PowerSystems /Users/jdlara/.julia/packages/PowerSystems/a9ndT/src/parsers/power_models_data.jl:173
┌ Info: 2021-09-28T17:07:28.282 [22826:1]: Reading generator data
└ @ PowerSystems /Users/jdlara/.julia/packages/PowerSystems/a9ndT/src/parsers/power_models_data.jl:488
┌ Info: 2021-09-28T17:07:28.285 [22826:1]: Reading branch data
└ @ PowerSystems /Users/jdlara/.julia/packages/PowerSystems/a9ndT/src/parsers/power_models_data.jl:632
┌ Info: 2021-09-28T17:07:28.285 [22826:1]: Reading branch data
└ @ PowerSystems /Users/jdlara/.julia/packages/PowerSystems/a9ndT/src/parsers/power_models_data.jl:694
┌ Info: 2021-09-28T17:07:28.285 [22826:1]: Reading DC Line data
└ @ PowerSystems /Users/jdlara/.julia/packages/PowerSystems/a9ndT/src/parsers/power_models_data.jl:666
┌ Info: 2021-09-28T17:07:28.285 [22826:1]: Reading storage data
└ @ PowerSystems /Users/jdlara/.julia/packages/PowerSystems/a9ndT/src/parsers/power_models_data.jl:713
┌ Warning: 2021-09-28T17:07:28.388 [22826:1]: Assignment to `case_gen` in soft scope is ambiguous because a global variable by the same name exists: `case_gen` will be treated as a new local. Disambiguate by using `local case_gen` to suppress this warning or `global case_gen` to assign to the existing global variable.
└ @ nothing /Users/jdlara/.julia/dev/PowerSimulationsDynamics/test/data_tests/test06.jl:28
┌ Info: 2021-09-28T17:07:29.108 [22826:1]: Validating connectivity with Goderya algorithm
└ @ PowerSystems /Users/jdlara/.julia/packages/PowerSystems/a9ndT/src/utils/network_calculations/ybus_calculations.jl:296
┌ Info: 2021-09-28T17:07:29.109 [22826:1]: The System has no islands
└ @ PowerSystems /Users/jdlara/.julia/packages/PowerSystems/a9ndT/src/utils/network_calculations/ybus_calculations.jl:242
┌ Info: 2021-09-28T17:07:29.109 [22826:1]: The System has no islands
└ @ PowerSystems /Users/jdlara/.julia/packages/PowerSystems/a9ndT/src/utils/network_calculations/ybus_calculations.jl:242
┌ Info: 2021-09-28T17:07:29.393 [22826:1]: Unit System changed to UnitSystem.DEVICE_BASE = 1
└ @ PowerSystems /Users/jdlara/.julia/packages/PowerSystems/a9ndT/src/base.jl:339
┌ Info: 2021-09-28T17:07:31.274 [22826:1]: removing test files
└ @ Main /Users/jdlara/.julia/dev/PowerSimulationsDynamics/test/test_case06_anderson.jl:66
┌ Info: 2021-09-28T17:07:31.470 [22826:1]: Unit System changed to UnitSystem.DEVICE_BASE = 1
└ @ PowerSystems /Users/jdlara/.julia/packages/PowerSystems/a9ndT/src/base.jl:339
┌ Info: 2021-09-28T17:07:33.236 [22826:1]: removing test files
└ @ Main /Users/jdlara/.julia/dev/PowerSimulationsDynamics/test/test_case06_anderson.jl:111
┌ Info: 2021-09-28T17:07:33.305 [22826:1]: The PSS(R)E parser currently supports buses, loads, shunts, generators, branches, transformers, and dc lines
└ @ PowerSystems /Users/jdlara/.julia/packages/PowerSystems/a9ndT/src/parsers/pm_io/common.jl:25
┌ Info: 2021-09-28T17:07:33.305 [22826:1]: The PSS(R)E parser currently supports buses, loads, shunts, generators, branches, transformers, and dc lines
└ @ PowerSystems /Users/jdlara/.julia/packages/PowerSystems/a9ndT/src/parsers/pm_io/psse.jl:1035
┌ Info: 2021-09-28T17:07:33.307 [22826:1]: angmin and angmax values are 0, widening these values on branch 1 to +/- 60.0 deg.
└ @ PowerSystems /Users/jdlara/.julia/packages/PowerSystems/a9ndT/src/parsers/pm_io/data.jl:1077
┌ Info: 2021-09-28T17:07:33.307 [22826:1]: angmin and angmax values are 0, widening these values on branch 2 to +/- 60.0 deg.
└ @ PowerSystems /Users/jdlara/.julia/packages/PowerSystems/a9ndT/src/parsers/pm_io/data.jl:1077
┌ Info: 2021-09-28T17:07:33.307 [22826:1]: angmin and angmax values are 0, widening these values on branch 3 to +/- 60.0 deg.
└ @ PowerSystems /Users/jdlara/.julia/packages/PowerSystems/a9ndT/src/parsers/pm_io/data.jl:1077
┌ Info: 2021-09-28T17:07:33.307 [22826:1]: Constructing System from Power Models
│   data["name"] = threebusnetwork
│   data["source_type"] = pti
└ @ PowerSystems /Users/jdlara/.julia/packages/PowerSystems/a9ndT/src/parsers/power_models_data.jl:52
┌ Info: 2021-09-28T17:07:33.312 [22826:1]: Reading bus data
└ @ PowerSystems /Users/jdlara/.julia/packages/PowerSystems/a9ndT/src/parsers/power_models_data.jl:173
┌ Info: 2021-09-28T17:07:33.312 [22826:1]: Reading generator data
└ @ PowerSystems /Users/jdlara/.julia/packages/PowerSystems/a9ndT/src/parsers/power_models_data.jl:488
┌ Info: 2021-09-28T17:07:33.314 [22826:1]: Reading branch data
└ @ PowerSystems /Users/jdlara/.julia/packages/PowerSystems/a9ndT/src/parsers/power_models_data.jl:632
┌ Info: 2021-09-28T17:07:33.314 [22826:1]: Reading branch data
└ @ PowerSystems /Users/jdlara/.julia/packages/PowerSystems/a9ndT/src/parsers/power_models_data.jl:694
┌ Info: 2021-09-28T17:07:33.314 [22826:1]: Reading DC Line data
└ @ PowerSystems /Users/jdlara/.julia/packages/PowerSystems/a9ndT/src/parsers/power_models_data.jl:666
┌ Info: 2021-09-28T17:07:33.314 [22826:1]: Reading storage data
└ @ PowerSystems /Users/jdlara/.julia/packages/PowerSystems/a9ndT/src/parsers/power_models_data.jl:713
┌ Info: 2021-09-28T17:07:33.420 [22826:1]: Unit System changed to UnitSystem.SYSTEM_BASE = 0
└ @ PowerSystems /Users/jdlara/.julia/packages/PowerSystems/a9ndT/src/base.jl:339
┌ Info: 2021-09-28T17:07:33.420 [22826:1]: Validating connectivity with Goderya algorithm
└ @ PowerSystems /Users/jdlara/.julia/packages/PowerSystems/a9ndT/src/utils/network_calculations/ybus_calculations.jl:296
┌ Info: 2021-09-28T17:07:33.420 [22826:1]: The System has no islands
└ @ PowerSystems /Users/jdlara/.julia/packages/PowerSystems/a9ndT/src/utils/network_calculations/ybus_calculations.jl:242
┌ Info: 2021-09-28T17:07:33.421 [22826:1]: PowerFlow solve converged, the results have been stored in the system
└ @ PowerSystems /Users/jdlara/.julia/packages/PowerSystems/a9ndT/src/utils/power_flow.jl:312
┌ Info: 2021-09-28T17:07:33.421 [22826:1]: Unit System changed to UnitSystem.SYSTEM_BASE = 0
└ @ PowerSystems /Users/jdlara/.julia/packages/PowerSystems/a9ndT/src/base.jl:345
┌ Warning: 2021-09-28T17:07:33.423 [22826:1]: Assignment to `case_gen` in soft scope is ambiguous because a global variable by the same name exists: `case_gen` will be treated as a new local. Disambiguate by using `local case_gen` to suppress this warning or `global case_gen` to assign to the existing global variable.
└ @ nothing /Users/jdlara/.julia/dev/PowerSimulationsDynamics/test/data_tests/test07.jl:44
┌ Info: 2021-09-28T17:07:34.244 [22826:1]: Validating connectivity with Goderya algorithm
└ @ PowerSystems /Users/jdlara/.julia/packages/PowerSystems/a9ndT/src/utils/network_calculations/ybus_calculations.jl:296
┌ Info: 2021-09-28T17:07:34.244 [22826:1]: The System has no islands
└ @ PowerSystems /Users/jdlara/.julia/packages/PowerSystems/a9ndT/src/utils/network_calculations/ybus_calculations.jl:242
┌ Info: 2021-09-28T17:07:34.244 [22826:1]: The System has no islands
└ @ PowerSystems /Users/jdlara/.julia/packages/PowerSystems/a9ndT/src/utils/network_calculations/ybus_calculations.jl:242
┌ Info: 2021-09-28T17:07:34.392 [22826:1]: Unit System changed to UnitSystem.DEVICE_BASE = 1
└ @ PowerSystems /Users/jdlara/.julia/packages/PowerSystems/a9ndT/src/base.jl:339
┌ Info: 2021-09-28T17:07:38.334 [22826:1]: removing test files
└ @ Main /Users/jdlara/.julia/dev/PowerSimulationsDynamics/test/test_case07_5shaft.jl:67
┌ Info: 2021-09-28T17:07:38.509 [22826:1]: Unit System changed to UnitSystem.DEVICE_BASE = 1
└ @ PowerSystems /Users/jdlara/.julia/packages/PowerSystems/a9ndT/src/base.jl:339
┌ Info: 2021-09-28T17:07:49.635 [22826:1]: removing test files
└ @ Main /Users/jdlara/.julia/dev/PowerSimulationsDynamics/test/test_case07_5shaft.jl:112
┌ Info: 2021-09-28T17:07:49.710 [22826:1]: The PSS(R)E parser currently supports buses, loads, shunts, generators, branches, transformers, and dc lines
└ @ PowerSystems /Users/jdlara/.julia/packages/PowerSystems/a9ndT/src/parsers/pm_io/common.jl:25
┌ Info: 2021-09-28T17:07:49.710 [22826:1]: The PSS(R)E parser currently supports buses, loads, shunts, generators, branches, transformers, and dc lines
└ @ PowerSystems /Users/jdlara/.julia/packages/PowerSystems/a9ndT/src/parsers/pm_io/psse.jl:1035
┌ Info: 2021-09-28T17:07:49.711 [22826:1]: angmin and angmax values are 0, widening these values on branch 1 to +/- 60.0 deg.
└ @ PowerSystems /Users/jdlara/.julia/packages/PowerSystems/a9ndT/src/parsers/pm_io/data.jl:1077
┌ Info: 2021-09-28T17:07:49.711 [22826:1]: Constructing System from Power Models
│   data["name"] = omib_darco_psr
│   data["source_type"] = pti
└ @ PowerSystems /Users/jdlara/.julia/packages/PowerSystems/a9ndT/src/parsers/power_models_data.jl:52
┌ Info: 2021-09-28T17:07:49.717 [22826:1]: Reading bus data
└ @ PowerSystems /Users/jdlara/.julia/packages/PowerSystems/a9ndT/src/parsers/power_models_data.jl:173
┌ Info: 2021-09-28T17:07:49.718 [22826:1]: Reading generator data
└ @ PowerSystems /Users/jdlara/.julia/packages/PowerSystems/a9ndT/src/parsers/power_models_data.jl:488
┌ Info: 2021-09-28T17:07:49.720 [22826:1]: Reading branch data
└ @ PowerSystems /Users/jdlara/.julia/packages/PowerSystems/a9ndT/src/parsers/power_models_data.jl:632
┌ Info: 2021-09-28T17:07:49.720 [22826:1]: Reading branch data
└ @ PowerSystems /Users/jdlara/.julia/packages/PowerSystems/a9ndT/src/parsers/power_models_data.jl:694
┌ Info: 2021-09-28T17:07:49.720 [22826:1]: Reading DC Line data
└ @ PowerSystems /Users/jdlara/.julia/packages/PowerSystems/a9ndT/src/parsers/power_models_data.jl:666
┌ Info: 2021-09-28T17:07:49.720 [22826:1]: Reading storage data
└ @ PowerSystems /Users/jdlara/.julia/packages/PowerSystems/a9ndT/src/parsers/power_models_data.jl:713
┌ Info: 2021-09-28T17:07:50.376 [22826:1]: Unit System changed to UnitSystem.DEVICE_BASE = 1
└ @ PowerSystems /Users/jdlara/.julia/packages/PowerSystems/a9ndT/src/base.jl:339
┌ Info: 2021-09-28T17:07:54.042 [22826:1]: removing test files
└ @ Main /Users/jdlara/.julia/dev/PowerSimulationsDynamics/test/test_case08_VirtualSynchMachine.jl:79
┌ Info: 2021-09-28T17:07:54.356 [22826:1]: Unit System changed to UnitSystem.DEVICE_BASE = 1
└ @ PowerSystems /Users/jdlara/.julia/packages/PowerSystems/a9ndT/src/base.jl:339
┌ Info: 2021-09-28T17:08:15.701 [22826:1]: removing test files
└ @ Main /Users/jdlara/.julia/dev/PowerSimulationsDynamics/test/test_case08_VirtualSynchMachine.jl:136
┌ Info: 2021-09-28T17:08:15.780 [22826:1]: The PSS(R)E parser currently supports buses, loads, shunts, generators, branches, transformers, and dc lines
└ @ PowerSystems /Users/jdlara/.julia/packages/PowerSystems/a9ndT/src/parsers/pm_io/common.jl:25
┌ Info: 2021-09-28T17:08:15.780 [22826:1]: The PSS(R)E parser currently supports buses, loads, shunts, generators, branches, transformers, and dc lines
└ @ PowerSystems /Users/jdlara/.julia/packages/PowerSystems/a9ndT/src/parsers/pm_io/psse.jl:1035
┌ Info: 2021-09-28T17:08:15.782 [22826:1]: angmin and angmax values are 0, widening these values on branch 1 to +/- 60.0 deg.
└ @ PowerSystems /Users/jdlara/.julia/packages/PowerSystems/a9ndT/src/parsers/pm_io/data.jl:1077
┌ Info: 2021-09-28T17:08:15.782 [22826:1]: angmin and angmax values are 0, widening these values on branch 2 to +/- 60.0 deg.
└ @ PowerSystems /Users/jdlara/.julia/packages/PowerSystems/a9ndT/src/parsers/pm_io/data.jl:1077
┌ Info: 2021-09-28T17:08:15.782 [22826:1]: angmin and angmax values are 0, widening these values on branch 3 to +/- 60.0 deg.
└ @ PowerSystems /Users/jdlara/.julia/packages/PowerSystems/a9ndT/src/parsers/pm_io/data.jl:1077
┌ Info: 2021-09-28T17:08:15.782 [22826:1]: Constructing System from Power Models
│   data["name"] = threebusnetwork
│   data["source_type"] = pti
└ @ PowerSystems /Users/jdlara/.julia/packages/PowerSystems/a9ndT/src/parsers/power_models_data.jl:52
┌ Info: 2021-09-28T17:08:15.787 [22826:1]: Reading bus data
└ @ PowerSystems /Users/jdlara/.julia/packages/PowerSystems/a9ndT/src/parsers/power_models_data.jl:173
┌ Info: 2021-09-28T17:08:15.787 [22826:1]: Reading generator data
└ @ PowerSystems /Users/jdlara/.julia/packages/PowerSystems/a9ndT/src/parsers/power_models_data.jl:488
┌ Info: 2021-09-28T17:08:15.789 [22826:1]: Reading branch data
└ @ PowerSystems /Users/jdlara/.julia/packages/PowerSystems/a9ndT/src/parsers/power_models_data.jl:632
┌ Info: 2021-09-28T17:08:15.789 [22826:1]: Reading branch data
└ @ PowerSystems /Users/jdlara/.julia/packages/PowerSystems/a9ndT/src/parsers/power_models_data.jl:694
┌ Info: 2021-09-28T17:08:15.789 [22826:1]: Reading DC Line data
└ @ PowerSystems /Users/jdlara/.julia/packages/PowerSystems/a9ndT/src/parsers/power_models_data.jl:666
┌ Info: 2021-09-28T17:08:15.789 [22826:1]: Reading storage data
└ @ PowerSystems /Users/jdlara/.julia/packages/PowerSystems/a9ndT/src/parsers/power_models_data.jl:713
┌ Warning: 2021-09-28T17:08:15.875 [22826:1]: Assignment to `case_gen` in soft scope is ambiguous because a global variable by the same name exists: `case_gen` will be treated as a new local. Disambiguate by using `local case_gen` to suppress this warning or `global case_gen` to assign to the existing global variable.
└ @ nothing /Users/jdlara/.julia/dev/PowerSimulationsDynamics/test/data_tests/test09.jl:40
┌ Warning: 2021-09-28T17:08:15.875 [22826:1]: Assignment to `case_inv` in soft scope is ambiguous because a global variable by the same name exists: `case_inv` will be treated as a new local. Disambiguate by using `local case_inv` to suppress this warning or `global case_inv` to assign to the existing global variable.
└ @ nothing /Users/jdlara/.julia/dev/PowerSimulationsDynamics/test/data_tests/test09.jl:43
┌ Info: 2021-09-28T17:08:16.643 [22826:1]: Unit System changed to UnitSystem.DEVICE_BASE = 1
└ @ PowerSystems /Users/jdlara/.julia/packages/PowerSystems/a9ndT/src/base.jl:339
┌ Info: 2021-09-28T17:08:18.889 [22826:1]: removing test files
└ @ Main /Users/jdlara/.julia/dev/PowerSimulationsDynamics/test/test_case09_oneDoneQ_inverter.jl:60
┌ Info: 2021-09-28T17:08:19.150 [22826:1]: Unit System changed to UnitSystem.DEVICE_BASE = 1
└ @ PowerSystems /Users/jdlara/.julia/packages/PowerSystems/a9ndT/src/base.jl:339
┌ Info: 2021-09-28T17:08:25.460 [22826:1]: removing test files
└ @ Main /Users/jdlara/.julia/dev/PowerSimulationsDynamics/test/test_case09_oneDoneQ_inverter.jl:110
┌ Info: 2021-09-28T17:08:25.541 [22826:1]: The PSS(R)E parser currently supports buses, loads, shunts, generators, branches, transformers, and dc lines
└ @ PowerSystems /Users/jdlara/.julia/packages/PowerSystems/a9ndT/src/parsers/pm_io/common.jl:25
┌ Info: 2021-09-28T17:08:25.541 [22826:1]: The PSS(R)E parser currently supports buses, loads, shunts, generators, branches, transformers, and dc lines
└ @ PowerSystems /Users/jdlara/.julia/packages/PowerSystems/a9ndT/src/parsers/pm_io/psse.jl:1035
┌ Info: 2021-09-28T17:08:25.543 [22826:1]: angmin and angmax values are 0, widening these values on branch 1 to +/- 60.0 deg.
└ @ PowerSystems /Users/jdlara/.julia/packages/PowerSystems/a9ndT/src/parsers/pm_io/data.jl:1077
┌ Info: 2021-09-28T17:08:25.543 [22826:1]: angmin and angmax values are 0, widening these values on branch 2 to +/- 60.0 deg.
└ @ PowerSystems /Users/jdlara/.julia/packages/PowerSystems/a9ndT/src/parsers/pm_io/data.jl:1077
┌ Info: 2021-09-28T17:08:25.543 [22826:1]: angmin and angmax values are 0, widening these values on branch 3 to +/- 60.0 deg.
└ @ PowerSystems /Users/jdlara/.julia/packages/PowerSystems/a9ndT/src/parsers/pm_io/data.jl:1077
┌ Info: 2021-09-28T17:08:25.543 [22826:1]: Constructing System from Power Models
│   data["name"] = threebusinverter
│   data["source_type"] = pti
└ @ PowerSystems /Users/jdlara/.julia/packages/PowerSystems/a9ndT/src/parsers/power_models_data.jl:52
┌ Info: 2021-09-28T17:08:25.551 [22826:1]: Reading bus data
└ @ PowerSystems /Users/jdlara/.julia/packages/PowerSystems/a9ndT/src/parsers/power_models_data.jl:173
┌ Info: 2021-09-28T17:08:25.552 [22826:1]: Reading generator data
└ @ PowerSystems /Users/jdlara/.julia/packages/PowerSystems/a9ndT/src/parsers/power_models_data.jl:488
┌ Info: 2021-09-28T17:08:25.557 [22826:1]: Reading branch data
└ @ PowerSystems /Users/jdlara/.julia/packages/PowerSystems/a9ndT/src/parsers/power_models_data.jl:632
┌ Info: 2021-09-28T17:08:25.557 [22826:1]: Reading branch data
└ @ PowerSystems /Users/jdlara/.julia/packages/PowerSystems/a9ndT/src/parsers/power_models_data.jl:694
┌ Info: 2021-09-28T17:08:25.557 [22826:1]: Reading DC Line data
└ @ PowerSystems /Users/jdlara/.julia/packages/PowerSystems/a9ndT/src/parsers/power_models_data.jl:666
┌ Info: 2021-09-28T17:08:25.557 [22826:1]: Reading storage data
└ @ PowerSystems /Users/jdlara/.julia/packages/PowerSystems/a9ndT/src/parsers/power_models_data.jl:713
┌ Warning: 2021-09-28T17:08:25.670 [22826:1]: Assignment to `case_gen` in soft scope is ambiguous because a global variable by the same name exists: `case_gen` will be treated as a new local. Disambiguate by using `local case_gen` to suppress this warning or `global case_gen` to assign to the existing global variable.
└ @ nothing /Users/jdlara/.julia/dev/PowerSimulationsDynamics/test/data_tests/test10.jl:41
┌ Warning: 2021-09-28T17:08:25.670 [22826:1]: Assignment to `case_inv` in soft scope is ambiguous because a global variable by the same name exists: `case_inv` will be treated as a new local. Disambiguate by using `local case_inv` to suppress this warning or `global case_inv` to assign to the existing global variable.
└ @ nothing /Users/jdlara/.julia/dev/PowerSimulationsDynamics/test/data_tests/test10.jl:44
┌ Info: 2021-09-28T17:08:25.932 [22826:1]: The PSS(R)E parser currently supports buses, loads, shunts, generators, branches, transformers, and dc lines
└ @ PowerSystems /Users/jdlara/.julia/packages/PowerSystems/a9ndT/src/parsers/pm_io/common.jl:25
┌ Info: 2021-09-28T17:08:25.932 [22826:1]: The PSS(R)E parser currently supports buses, loads, shunts, generators, branches, transformers, and dc lines
└ @ PowerSystems /Users/jdlara/.julia/packages/PowerSystems/a9ndT/src/parsers/pm_io/psse.jl:1035
┌ Info: 2021-09-28T17:08:25.933 [22826:1]: angmin and angmax values are 0, widening these values on branch 1 to +/- 60.0 deg.
└ @ PowerSystems /Users/jdlara/.julia/packages/PowerSystems/a9ndT/src/parsers/pm_io/data.jl:1077
┌ Info: 2021-09-28T17:08:25.933 [22826:1]: angmin and angmax values are 0, widening these values on branch 2 to +/- 60.0 deg.
└ @ PowerSystems /Users/jdlara/.julia/packages/PowerSystems/a9ndT/src/parsers/pm_io/data.jl:1077
┌ Info: 2021-09-28T17:08:25.933 [22826:1]: angmin and angmax values are 0, widening these values on branch 3 to +/- 60.0 deg.
└ @ PowerSystems /Users/jdlara/.julia/packages/PowerSystems/a9ndT/src/parsers/pm_io/data.jl:1077
┌ Info: 2021-09-28T17:08:25.933 [22826:1]: Constructing System from Power Models
│   data["name"] = threebusinverter
│   data["source_type"] = pti
└ @ PowerSystems /Users/jdlara/.julia/packages/PowerSystems/a9ndT/src/parsers/power_models_data.jl:52
┌ Info: 2021-09-28T17:08:25.937 [22826:1]: Reading bus data
└ @ PowerSystems /Users/jdlara/.julia/packages/PowerSystems/a9ndT/src/parsers/power_models_data.jl:173
┌ Info: 2021-09-28T17:08:25.938 [22826:1]: Reading generator data
└ @ PowerSystems /Users/jdlara/.julia/packages/PowerSystems/a9ndT/src/parsers/power_models_data.jl:488
┌ Info: 2021-09-28T17:08:25.940 [22826:1]: Reading branch data
└ @ PowerSystems /Users/jdlara/.julia/packages/PowerSystems/a9ndT/src/parsers/power_models_data.jl:632
┌ Info: 2021-09-28T17:08:25.941 [22826:1]: Reading branch data
└ @ PowerSystems /Users/jdlara/.julia/packages/PowerSystems/a9ndT/src/parsers/power_models_data.jl:694
┌ Info: 2021-09-28T17:08:25.941 [22826:1]: Reading DC Line data
└ @ PowerSystems /Users/jdlara/.julia/packages/PowerSystems/a9ndT/src/parsers/power_models_data.jl:666
┌ Info: 2021-09-28T17:08:25.941 [22826:1]: Reading storage data
└ @ PowerSystems /Users/jdlara/.julia/packages/PowerSystems/a9ndT/src/parsers/power_models_data.jl:713
┌ Info: 2021-09-28T17:08:26.032 [22826:1]: Validating connectivity with Goderya algorithm
└ @ PowerSystems /Users/jdlara/.julia/packages/PowerSystems/a9ndT/src/utils/network_calculations/ybus_calculations.jl:296
┌ Info: 2021-09-28T17:08:26.032 [22826:1]: The System has no islands
└ @ PowerSystems /Users/jdlara/.julia/packages/PowerSystems/a9ndT/src/utils/network_calculations/ybus_calculations.jl:242
┌ Info: 2021-09-28T17:08:26.038 [22826:1]: The System has no islands
└ @ PowerSystems /Users/jdlara/.julia/packages/PowerSystems/a9ndT/src/utils/network_calculations/ybus_calculations.jl:242
┌ Info: 2021-09-28T17:08:26.056 [22826:1]: Unit System changed to UnitSystem.DEVICE_BASE = 1
└ @ PowerSystems /Users/jdlara/.julia/packages/PowerSystems/a9ndT/src/base.jl:339
┌ Info: 2021-09-28T17:08:26.557 [22826:1]: removing test files
└ @ Main /Users/jdlara/.julia/dev/PowerSimulationsDynamics/test/test_case10_staticbranches.jl:68
┌ Info: 2021-09-28T17:08:26.572 [22826:1]: Unit System changed to UnitSystem.DEVICE_BASE = 1
└ @ PowerSystems /Users/jdlara/.julia/packages/PowerSystems/a9ndT/src/base.jl:339
┌ Info: 2021-09-28T17:08:31.861 [22826:1]: removing test files
└ @ Main /Users/jdlara/.julia/dev/PowerSimulationsDynamics/test/test_case10_staticbranches.jl:115
┌ Info: 2021-09-28T17:08:31.918 [22826:1]: The PSS(R)E parser currently supports buses, loads, shunts, generators, branches, transformers, and dc lines
└ @ PowerSystems /Users/jdlara/.julia/packages/PowerSystems/a9ndT/src/parsers/pm_io/common.jl:25
┌ Info: 2021-09-28T17:08:31.918 [22826:1]: The PSS(R)E parser currently supports buses, loads, shunts, generators, branches, transformers, and dc lines
└ @ PowerSystems /Users/jdlara/.julia/packages/PowerSystems/a9ndT/src/parsers/pm_io/psse.jl:1035
┌ Info: 2021-09-28T17:08:31.920 [22826:1]: angmin and angmax values are 0, widening these values on branch 1 to +/- 60.0 deg.
└ @ PowerSystems /Users/jdlara/.julia/packages/PowerSystems/a9ndT/src/parsers/pm_io/data.jl:1077
┌ Info: 2021-09-28T17:08:31.920 [22826:1]: angmin and angmax values are 0, widening these values on branch 2 to +/- 60.0 deg.
└ @ PowerSystems /Users/jdlara/.julia/packages/PowerSystems/a9ndT/src/parsers/pm_io/data.jl:1077
┌ Info: 2021-09-28T17:08:31.920 [22826:1]: angmin and angmax values are 0, widening these values on branch 3 to +/- 60.0 deg.
└ @ PowerSystems /Users/jdlara/.julia/packages/PowerSystems/a9ndT/src/parsers/pm_io/data.jl:1077
┌ Info: 2021-09-28T17:08:31.920 [22826:1]: Constructing System from Power Models
│   data["name"] = threebusinverter
│   data["source_type"] = pti
└ @ PowerSystems /Users/jdlara/.julia/packages/PowerSystems/a9ndT/src/parsers/power_models_data.jl:52
┌ Info: 2021-09-28T17:08:31.924 [22826:1]: Reading bus data
└ @ PowerSystems /Users/jdlara/.julia/packages/PowerSystems/a9ndT/src/parsers/power_models_data.jl:173
┌ Info: 2021-09-28T17:08:31.925 [22826:1]: Reading generator data
└ @ PowerSystems /Users/jdlara/.julia/packages/PowerSystems/a9ndT/src/parsers/power_models_data.jl:488
┌ Info: 2021-09-28T17:08:31.927 [22826:1]: Reading branch data
└ @ PowerSystems /Users/jdlara/.julia/packages/PowerSystems/a9ndT/src/parsers/power_models_data.jl:632
┌ Info: 2021-09-28T17:08:31.927 [22826:1]: Reading branch data
└ @ PowerSystems /Users/jdlara/.julia/packages/PowerSystems/a9ndT/src/parsers/power_models_data.jl:694
┌ Info: 2021-09-28T17:08:31.927 [22826:1]: Reading DC Line data
└ @ PowerSystems /Users/jdlara/.julia/packages/PowerSystems/a9ndT/src/parsers/power_models_data.jl:666
┌ Info: 2021-09-28T17:08:31.927 [22826:1]: Reading storage data
└ @ PowerSystems /Users/jdlara/.julia/packages/PowerSystems/a9ndT/src/parsers/power_models_data.jl:713
┌ Warning: 2021-09-28T17:08:32.029 [22826:1]: Assignment to `case_gen` in soft scope is ambiguous because a global variable by the same name exists: `case_gen` will be treated as a new local. Disambiguate by using `local case_gen` to suppress this warning or `global case_gen` to assign to the existing global variable.
└ @ nothing /Users/jdlara/.julia/dev/PowerSimulationsDynamics/test/data_tests/test11.jl:43
┌ Warning: 2021-09-28T17:08:32.029 [22826:1]: Assignment to `case_inv` in soft scope is ambiguous because a global variable by the same name exists: `case_inv` will be treated as a new local. Disambiguate by using `local case_inv` to suppress this warning or `global case_inv` to assign to the existing global variable.
└ @ nothing /Users/jdlara/.julia/dev/PowerSimulationsDynamics/test/data_tests/test11.jl:46
┌ Info: 2021-09-28T17:08:32.223 [22826:1]: The PSS(R)E parser currently supports buses, loads, shunts, generators, branches, transformers, and dc lines
└ @ PowerSystems /Users/jdlara/.julia/packages/PowerSystems/a9ndT/src/parsers/pm_io/common.jl:25
┌ Info: 2021-09-28T17:08:32.223 [22826:1]: The PSS(R)E parser currently supports buses, loads, shunts, generators, branches, transformers, and dc lines
└ @ PowerSystems /Users/jdlara/.julia/packages/PowerSystems/a9ndT/src/parsers/pm_io/psse.jl:1035
┌ Info: 2021-09-28T17:08:32.224 [22826:1]: angmin and angmax values are 0, widening these values on branch 1 to +/- 60.0 deg.
└ @ PowerSystems /Users/jdlara/.julia/packages/PowerSystems/a9ndT/src/parsers/pm_io/data.jl:1077
┌ Info: 2021-09-28T17:08:32.224 [22826:1]: angmin and angmax values are 0, widening these values on branch 2 to +/- 60.0 deg.
└ @ PowerSystems /Users/jdlara/.julia/packages/PowerSystems/a9ndT/src/parsers/pm_io/data.jl:1077
┌ Info: 2021-09-28T17:08:32.224 [22826:1]: angmin and angmax values are 0, widening these values on branch 3 to +/- 60.0 deg.
└ @ PowerSystems /Users/jdlara/.julia/packages/PowerSystems/a9ndT/src/parsers/pm_io/data.jl:1077
┌ Info: 2021-09-28T17:08:32.224 [22826:1]: Constructing System from Power Models
│   data["name"] = threebusinverter
│   data["source_type"] = pti
└ @ PowerSystems /Users/jdlara/.julia/packages/PowerSystems/a9ndT/src/parsers/power_models_data.jl:52
┌ Info: 2021-09-28T17:08:32.228 [22826:1]: Reading bus data
└ @ PowerSystems /Users/jdlara/.julia/packages/PowerSystems/a9ndT/src/parsers/power_models_data.jl:173
┌ Info: 2021-09-28T17:08:32.229 [22826:1]: Reading generator data
└ @ PowerSystems /Users/jdlara/.julia/packages/PowerSystems/a9ndT/src/parsers/power_models_data.jl:488
┌ Info: 2021-09-28T17:08:32.231 [22826:1]: Reading branch data
└ @ PowerSystems /Users/jdlara/.julia/packages/PowerSystems/a9ndT/src/parsers/power_models_data.jl:632
┌ Info: 2021-09-28T17:08:32.231 [22826:1]: Reading branch data
└ @ PowerSystems /Users/jdlara/.julia/packages/PowerSystems/a9ndT/src/parsers/power_models_data.jl:694
┌ Info: 2021-09-28T17:08:32.231 [22826:1]: Reading DC Line data
└ @ PowerSystems /Users/jdlara/.julia/packages/PowerSystems/a9ndT/src/parsers/power_models_data.jl:666
┌ Info: 2021-09-28T17:08:32.231 [22826:1]: Reading storage data
└ @ PowerSystems /Users/jdlara/.julia/packages/PowerSystems/a9ndT/src/parsers/power_models_data.jl:713
┌ Info: 2021-09-28T17:08:32.382 [22826:1]: Validating connectivity with Goderya algorithm
└ @ PowerSystems /Users/jdlara/.julia/packages/PowerSystems/a9ndT/src/utils/network_calculations/ybus_calculations.jl:296
┌ Info: 2021-09-28T17:08:32.382 [22826:1]: The System has no islands
└ @ PowerSystems /Users/jdlara/.julia/packages/PowerSystems/a9ndT/src/utils/network_calculations/ybus_calculations.jl:242
┌ Info: 2021-09-28T17:08:32.383 [22826:1]: The System has no islands
└ @ PowerSystems /Users/jdlara/.julia/packages/PowerSystems/a9ndT/src/utils/network_calculations/ybus_calculations.jl:242
┌ Info: 2021-09-28T17:08:32.492 [22826:1]: Unit System changed to UnitSystem.DEVICE_BASE = 1
└ @ PowerSystems /Users/jdlara/.julia/packages/PowerSystems/a9ndT/src/base.jl:339
┌ Info: 2021-09-28T17:08:32.993 [22826:1]: removing test files
└ @ Main /Users/jdlara/.julia/dev/PowerSimulationsDynamics/test/test_case11_dynbranches.jl:62
┌ Info: 2021-09-28T17:08:33.115 [22826:1]: Unit System changed to UnitSystem.DEVICE_BASE = 1
└ @ PowerSystems /Users/jdlara/.julia/packages/PowerSystems/a9ndT/src/base.jl:339
┌ Info: 2021-09-28T17:08:39.216 [22826:1]: removing test files
└ @ Main /Users/jdlara/.julia/dev/PowerSimulationsDynamics/test/test_case11_dynbranches.jl:103
┌ Info: 2021-09-28T17:08:39.274 [22826:1]: The PSS(R)E parser currently supports buses, loads, shunts, generators, branches, transformers, and dc lines
└ @ PowerSystems /Users/jdlara/.julia/packages/PowerSystems/a9ndT/src/parsers/pm_io/common.jl:25
┌ Info: 2021-09-28T17:08:39.274 [22826:1]: The PSS(R)E parser currently supports buses, loads, shunts, generators, branches, transformers, and dc lines
└ @ PowerSystems /Users/jdlara/.julia/packages/PowerSystems/a9ndT/src/parsers/pm_io/psse.jl:1035
┌ Info: 2021-09-28T17:08:39.278 [22826:1]: angmin and angmax values are 0, widening these values on branch 1 to +/- 60.0 deg.
└ @ PowerSystems /Users/jdlara/.julia/packages/PowerSystems/a9ndT/src/parsers/pm_io/data.jl:1077
┌ Info: 2021-09-28T17:08:39.278 [22826:1]: Constructing System from Power Models
│   data["name"] = threebusmulti
│   data["source_type"] = pti
└ @ PowerSystems /Users/jdlara/.julia/packages/PowerSystems/a9ndT/src/parsers/power_models_data.jl:52
┌ Info: 2021-09-28T17:08:39.285 [22826:1]: Reading bus data
└ @ PowerSystems /Users/jdlara/.julia/packages/PowerSystems/a9ndT/src/parsers/power_models_data.jl:173
┌ Info: 2021-09-28T17:08:39.286 [22826:1]: Reading generator data
└ @ PowerSystems /Users/jdlara/.julia/packages/PowerSystems/a9ndT/src/parsers/power_models_data.jl:488
┌ Info: 2021-09-28T17:08:39.290 [22826:1]: Reading branch data
└ @ PowerSystems /Users/jdlara/.julia/packages/PowerSystems/a9ndT/src/parsers/power_models_data.jl:632
┌ Info: 2021-09-28T17:08:39.291 [22826:1]: Reading branch data
└ @ PowerSystems /Users/jdlara/.julia/packages/PowerSystems/a9ndT/src/parsers/power_models_data.jl:694
┌ Info: 2021-09-28T17:08:39.291 [22826:1]: Reading DC Line data
└ @ PowerSystems /Users/jdlara/.julia/packages/PowerSystems/a9ndT/src/parsers/power_models_data.jl:666
┌ Info: 2021-09-28T17:08:39.291 [22826:1]: Reading storage data
└ @ PowerSystems /Users/jdlara/.julia/packages/PowerSystems/a9ndT/src/parsers/power_models_data.jl:713
┌ Warning: 2021-09-28T17:08:39.295 [22826:1]: Assignment to `case_gen` in soft scope is ambiguous because a global variable by the same name exists: `case_gen` will be treated as a new local. Disambiguate by using `local case_gen` to suppress this warning or `global case_gen` to assign to the existing global variable.
└ @ nothing /Users/jdlara/.julia/dev/PowerSimulationsDynamics/test/data_tests/test12.jl:39
┌ Info: 2021-09-28T17:08:40.346 [22826:1]: Validating connectivity with Goderya algorithm
└ @ PowerSystems /Users/jdlara/.julia/packages/PowerSystems/a9ndT/src/utils/network_calculations/ybus_calculations.jl:296
┌ Info: 2021-09-28T17:08:40.346 [22826:1]: The System has no islands
└ @ PowerSystems /Users/jdlara/.julia/packages/PowerSystems/a9ndT/src/utils/network_calculations/ybus_calculations.jl:242
┌ Info: 2021-09-28T17:08:40.346 [22826:1]: The System has no islands
└ @ PowerSystems /Users/jdlara/.julia/packages/PowerSystems/a9ndT/src/utils/network_calculations/ybus_calculations.jl:242
┌ Info: 2021-09-28T17:08:40.600 [22826:1]: Unit System changed to UnitSystem.DEVICE_BASE = 1
└ @ PowerSystems /Users/jdlara/.julia/packages/PowerSystems/a9ndT/src/base.jl:339
┌ Info: 2021-09-28T17:08:43.107 [22826:1]: removing test files
└ @ Main /Users/jdlara/.julia/dev/PowerSimulationsDynamics/test/test_case12_multimachine.jl:66
┌ Info: 2021-09-28T17:08:43.418 [22826:1]: Unit System changed to UnitSystem.DEVICE_BASE = 1
└ @ PowerSystems /Users/jdlara/.julia/packages/PowerSystems/a9ndT/src/base.jl:339
┌ Info: 2021-09-28T17:08:45.532 [22826:1]: removing test files
└ @ Main /Users/jdlara/.julia/dev/PowerSimulationsDynamics/test/test_case12_multimachine.jl:110
┌ Info: 2021-09-28T17:08:45.619 [22826:1]: The PSS(R)E parser currently supports buses, loads, shunts, generators, branches, transformers, and dc lines
└ @ PowerSystems /Users/jdlara/.julia/packages/PowerSystems/a9ndT/src/parsers/pm_io/common.jl:25
┌ Info: 2021-09-28T17:08:45.619 [22826:1]: The PSS(R)E parser currently supports buses, loads, shunts, generators, branches, transformers, and dc lines
└ @ PowerSystems /Users/jdlara/.julia/packages/PowerSystems/a9ndT/src/parsers/pm_io/psse.jl:1035
┌ Info: 2021-09-28T17:08:45.623 [22826:1]: Constructing System from Power Models
│   data["name"] = threebusnetwork
│   data["source_type"] = pti
└ @ PowerSystems /Users/jdlara/.julia/packages/PowerSystems/a9ndT/src/parsers/power_models_data.jl:52
┌ Info: 2021-09-28T17:08:45.634 [22826:1]: Reading bus data
└ @ PowerSystems /Users/jdlara/.julia/packages/PowerSystems/a9ndT/src/parsers/power_models_data.jl:173
┌ Info: 2021-09-28T17:08:45.634 [22826:1]: Reading generator data
└ @ PowerSystems /Users/jdlara/.julia/packages/PowerSystems/a9ndT/src/parsers/power_models_data.jl:488
┌ Info: 2021-09-28T17:08:45.639 [22826:1]: Reading branch data
└ @ PowerSystems /Users/jdlara/.julia/packages/PowerSystems/a9ndT/src/parsers/power_models_data.jl:632
┌ Info: 2021-09-28T17:08:45.640 [22826:1]: Reading branch data
└ @ PowerSystems /Users/jdlara/.julia/packages/PowerSystems/a9ndT/src/parsers/power_models_data.jl:694
┌ Info: 2021-09-28T17:08:45.640 [22826:1]: Reading DC Line data
└ @ PowerSystems /Users/jdlara/.julia/packages/PowerSystems/a9ndT/src/parsers/power_models_data.jl:666
┌ Info: 2021-09-28T17:08:45.640 [22826:1]: Reading storage data
[...]
│     example message="Rate 250.0 MW for BUS 1-BUS 2-i_1 is larger than the max expected in the range of (min = 47.0, max = 52.0)."
│   count=37 at /Users/jdlara/.julia/packages/InfrastructureSystems/7AXsY/src/validation.jl:51
│     example message="struct DynamicGenerator does not exist in validation configuration file, validation skipped"
│   count=6 at /Users/jdlara/.julia/packages/PowerSystems/a9ndT/src/models/dynamic_machines.jl:11
│     example message="0.0 or 1.0 equals to zero. Ignoring saturation."
│   count=2 at /Users/jdlara/.julia/dev/PowerSimulationsDynamics/test/data_tests/test09.jl:43
│     example message="Assignment to `case_inv` in soft scope is ambiguous because a global variable by the same name exists: `case_inv` will be treated as a new local. Disambiguate by using `local case_inv` to suppress this warning or `global case_inv` to assign to the existing global variable."
│   count=2 at /Users/jdlara/.julia/packages/PowerSystems/a9ndT/src/utils/IO/system_checks.jl:56
│     example message="There are no ElectricLoad Components in the System"
│   count=2 at /Users/jdlara/.julia/dev/PowerSimulationsDynamics/test/data_tests/test09.jl:40
│     example message="Assignment to `case_gen` in soft scope is ambiguous because a global variable by the same name exists: `case_gen` will be treated as a new local. Disambiguate by using `local case_gen` to suppress this warning or `global case_gen` to assign to the existing global variable."
│   count=2 at /Users/jdlara/.julia/dev/PowerSimulationsDynamics/src/base/frequency_reference.jl:57
│     example message="The reference Bus has a Source connected to it. The frequency reference model will change to FixedFrequency"
│   count=1 at /Users/jdlara/.julia/dev/PowerSimulationsDynamics/test/data_tests/test11.jl:43
│     example message="Assignment to `case_gen` in soft scope is ambiguous because a global variable by the same name exists: `case_gen` will be treated as a new local. Disambiguate by using `local case_gen` to suppress this warning or `global case_gen` to assign to the existing global variable."
│   count=1 at /Users/jdlara/.julia/dev/PowerSimulationsDynamics/test/data_tests/test03.jl:28
│     example message="Assignment to `case_gen` in soft scope is ambiguous because a global variable by the same name exists: `case_gen` will be treated as a new local. Disambiguate by using `local case_gen` to suppress this warning or `global case_gen` to assign to the existing global variable."
│   count=1 at /Users/jdlara/.julia/dev/PowerSimulationsDynamics/test/data_tests/test10.jl:41
│     example message="Assignment to `case_gen` in soft scope is ambiguous because a global variable by the same name exists: `case_gen` will be treated as a new local. Disambiguate by using `local case_gen` to suppress this warning or `global case_gen` to assign to the existing global variable."
│   count=1 at /Users/jdlara/.julia/dev/PowerSimulationsDynamics/test/data_tests/test11.jl:46
│     example message="Assignment to `case_inv` in soft scope is ambiguous because a global variable by the same name exists: `case_inv` will be treated as a new local. Disambiguate by using `local case_inv` to suppress this warning or `global case_inv` to assign to the existing global variable."
│   count=1 at /Users/jdlara/.julia/dev/PowerSimulationsDynamics/test/data_tests/test12.jl:39
│     example message="Assignment to `case_gen` in soft scope is ambiguous because a global variable by the same name exists: `case_gen` will be treated as a new local. Disambiguate by using `local case_gen` to suppress this warning or `global case_gen` to assign to the existing global variable."
│   count=1 at /Users/jdlara/.julia/dev/PowerSimulationsDynamics/test/data_tests/test14.jl:40
│     example message="Assignment to `case_gen` in soft scope is ambiguous because a global variable by the same name exists: `case_gen` will be treated as a new local. Disambiguate by using `local case_gen` to suppress this warning or `global case_gen` to assign to the existing global variable."
│   count=1 at /Users/jdlara/.julia/dev/PowerSimulationsDynamics/test/data_tests/test25.jl:39
│     example message="Assignment to `case_gen` in soft scope is ambiguous because a global variable by the same name exists: `case_gen` will be treated as a new local. Disambiguate by using `local case_gen` to suppress this warning or `global case_gen` to assign to the existing global variable."
│   count=1 at /Users/jdlara/.julia/dev/PowerSimulationsDynamics/test/data_tests/test05.jl:28
│     example message="Assignment to `case_gen` in soft scope is ambiguous because a global variable by the same name exists: `case_gen` will be treated as a new local. Disambiguate by using `local case_gen` to suppress this warning or `global case_gen` to assign to the existing global variable."
│   count=1 at /Users/jdlara/.julia/dev/PowerSimulationsDynamics/test/data_tests/test07.jl:44
│     example message="Assignment to `case_gen` in soft scope is ambiguous because a global variable by the same name exists: `case_gen` will be treated as a new local. Disambiguate by using `local case_gen` to suppress this warning or `global case_gen` to assign to the existing global variable."
│   count=1 at /Users/jdlara/.julia/dev/PowerSimulationsDynamics/test/data_tests/test13.jl:40
│     example message="Assignment to `case_gen` in soft scope is ambiguous because a global variable by the same name exists: `case_gen` will be treated as a new local. Disambiguate by using `local case_gen` to suppress this warning or `global case_gen` to assign to the existing global variable."
│   count=1 at /Users/jdlara/.julia/packages/PowerSystems/a9ndT/src/models/dynamic_machines.jl:40
│     example message="0.0 or 0.0 equals to zero. Ignoring saturation."
│   count=1 at /Users/jdlara/.julia/dev/PowerSimulationsDynamics/test/data_tests/test04.jl:28
│     example message="Assignment to `case_gen` in soft scope is ambiguous because a global variable by the same name exists: `case_gen` will be treated as a new local. Disambiguate by using `local case_gen` to suppress this warning or `global case_gen` to assign to the existing global variable."
│   count=1 at /Users/jdlara/.julia/dev/PowerSimulationsDynamics/test/data_tests/test06.jl:28
│     example message="Assignment to `case_gen` in soft scope is ambiguous because a global variable by the same name exists: `case_gen` will be treated as a new local. Disambiguate by using `local case_gen` to suppress this warning or `global case_gen` to assign to the existing global variable."
│   count=1 at /Users/jdlara/.julia/dev/PowerSimulationsDynamics/test/data_tests/test02.jl:30
│     example message="Assignment to `case_gen` in soft scope is ambiguous because a global variable by the same name exists: `case_gen` will be treated as a new local. Disambiguate by using `local case_gen` to suppress this warning or `global case_gen` to assign to the existing global variable."
│   count=1 at /Users/jdlara/.julia/dev/PowerSimulationsDynamics/test/data_tests/test10.jl:44
│     example message="Assignment to `case_inv` in soft scope is ambiguous because a global variable by the same name exists: `case_inv` will be treated as a new local. Disambiguate by using `local case_inv` to suppress this warning or `global case_inv` to assign to the existing global variable."
│ 
│ 82 Info events:
│   count=160 at /Users/jdlara/.julia/packages/PowerSystems/a9ndT/src/parsers/pm_io/data.jl:1077
│     example message="angmin and angmax values are 0, widening these values on branch 1 to +/- 60.0 deg."
│   count=152 at /Users/jdlara/.julia/packages/PowerSystems/a9ndT/src/parsers/pm_io/pti.jl:1227
│     example message="The following fields in GENERATOR are missing: O2, F2, O3, F3, O4, F4, WMOD, WPF"
│   count=85 at /Users/jdlara/.julia/packages/PowerSystems/a9ndT/src/base.jl:339
│     example message="Unit System changed to UnitSystem.DEVICE_BASE = 1"
│   count=58 at /Users/jdlara/.julia/packages/PowerSystems/a9ndT/src/parsers/power_models_data.jl:694
│     example message="Reading branch data"
│   count=58 at /Users/jdlara/.julia/packages/PowerSystems/a9ndT/src/parsers/power_models_data.jl:52
│     example message="Constructing System from Power Models"
│   count=58 at /Users/jdlara/.julia/packages/PowerSystems/a9ndT/src/parsers/power_models_data.jl:632
│     example message="Reading branch data"
│   count=58 at /Users/jdlara/.julia/packages/PowerSystems/a9ndT/src/parsers/power_models_data.jl:173
│     example message="Reading bus data"
│   count=58 at /Users/jdlara/.julia/packages/PowerSystems/a9ndT/src/parsers/power_models_data.jl:488
│     example message="Reading generator data"
│   count=58 at /Users/jdlara/.julia/packages/PowerSystems/a9ndT/src/parsers/pm_io/common.jl:25
│     example message="The PSS(R)E parser currently supports buses, loads, shunts, generators, branches, transformers, and dc lines"
│   count=58 at /Users/jdlara/.julia/packages/PowerSystems/a9ndT/src/parsers/power_models_data.jl:713
│     example message="Reading storage data"
│   count=58 at /Users/jdlara/.julia/packages/PowerSystems/a9ndT/src/parsers/power_models_data.jl:666
│     example message="Reading DC Line data"
│   count=58 at /Users/jdlara/.julia/packages/PowerSystems/a9ndT/src/parsers/pm_io/psse.jl:1035
│     example message="The PSS(R)E parser currently supports buses, loads, shunts, generators, branches, transformers, and dc lines"
│   count=36 at /Users/jdlara/.julia/packages/PowerSystems/a9ndT/src/utils/network_calculations/ybus_calculations.jl:242
│     example message="The System has no islands"
│   count=27 at /Users/jdlara/.julia/packages/PowerSystems/a9ndT/src/parsers/psse_dynamic_data.jl:389
│     example message="Generators provided in .dyr, without a generator in .raw file will be skipped."
│   count=26 at /Users/jdlara/.julia/packages/PowerSystems/a9ndT/src/parsers/psse_dynamic_data.jl:421
│     example message="Machine at bus 101, id 1 has zero inertia. Modeling it as Voltage Source"
│   count=21 at /Users/jdlara/.julia/packages/PowerSystems/a9ndT/src/utils/network_calculations/ybus_calculations.jl:296
│     example message="Validating connectivity with Goderya algorithm"
│   count=4 at /Users/jdlara/.julia/packages/PowerSystems/a9ndT/src/parsers/pm_io/data.jl:1796
│     example message="the voltage setpoint on generator 1 does not match the value at bus 102"
│   count=3 at /Users/jdlara/.julia/dev/PowerSimulationsDynamics/test/test_case15_genrou.jl:152
│     example message="removing test files"
│   count=3 at /Users/jdlara/.julia/dev/PowerSimulationsDynamics/test/test_case15_genrou.jl:91
│     example message="removing test files"
│   count=2 at /Users/jdlara/.julia/packages/PowerSystems/a9ndT/src/utils/power_flow.jl:312
│     example message="PowerFlow solve converged, the results have been stored in the system"
│   count=2 at /Users/jdlara/.julia/dev/PowerSimulationsDynamics/test/test_case29_renewablemodels.jl:168
│     example message="removing test files"
│   count=2 at /Users/jdlara/.julia/dev/PowerSimulationsDynamics/test/test_case20_ac1a.jl:148
│     example message="removing test files"
│   count=2 at /Users/jdlara/.julia/packages/PowerSystems/a9ndT/src/base.jl:274
│     example message="Serialized System to /Users/jdlara/.julia/dev/PowerSimulationsDynamics/test-Base-1/input_system.json"
│   count=2 at /Users/jdlara/.julia/packages/PowerSystems/a9ndT/src/base.jl:345
│     example message="Unit System changed to UnitSystem.SYSTEM_BASE = 0"
│   count=2 at /Users/jdlara/.julia/dev/PowerSimulationsDynamics/test/test_case16_genroe.jl:88
│     example message="removing test files"
│   count=2 at /Users/jdlara/.julia/dev/PowerSimulationsDynamics/test/test_case20_ac1a.jl:88
│     example message="removing test files"
│   count=2 at /Users/jdlara/.julia/dev/PowerSimulationsDynamics/test/test_case26_SEXS.jl:90
│     example message="removing test files"
│   count=2 at /Users/jdlara/.julia/dev/PowerSimulationsDynamics/test/test_case16_genroe.jl:149
│     example message="removing test files"
│   count=2 at /Users/jdlara/.julia/dev/PowerSimulationsDynamics/test/test_case29_renewablemodels.jl:98
│     example message="removing test files"
│   count=2 at /Users/jdlara/.julia/dev/PowerSimulationsDynamics/test/test_case26_SEXS.jl:152
│     example message="removing test files"
│   count=1 at /Users/jdlara/.julia/dev/PowerSimulationsDynamics/test/test_base.jl:40
│     example message="removing test files"
│   count=1 at /Users/jdlara/.julia/dev/PowerSimulationsDynamics/test/test_case24_gridfollowing.jl:147
│     example message="removing test files"
│   count=1 at /Users/jdlara/.julia/dev/PowerSimulationsDynamics/test/test_case17_genrou_avr.jl:96
│     example message="removing test files"
│   count=1 at /Users/jdlara/.julia/dev/PowerSimulationsDynamics/test/test_case14_inverter_ref.jl:112
│     example message="removing test files"
│   count=1 at /Users/jdlara/.julia/dev/PowerSimulationsDynamics/test/test_case18_gensal.jl:159
│     example message="removing test files"
│   count=1 at /Users/jdlara/.julia/dev/PowerSimulationsDynamics/test/test_case27_source_bus_voltage_change.jl:130
│     example message="removing test files"
│   count=1 at /Users/jdlara/.julia/dev/PowerSimulationsDynamics/test/test_case03_simple_marconato.jl:80
│     example message="removing test files"
│   count=1 at /Users/jdlara/.julia/dev/PowerSimulationsDynamics/test/test_case13_avrs.jl:63
│     example message="removing test files"
│   count=1 at /Users/jdlara/.julia/dev/PowerSimulationsDynamics/test/test_case27_source_bus_voltage_change.jl:88
│     example message="removing test files"
│   count=1 at /Users/jdlara/.julia/dev/PowerSimulationsDynamics/test/test_case10_staticbranches.jl:68
│     example message="removing test files"
│   count=1 at /Users/jdlara/.julia/dev/PowerSimulationsDynamics/test/test_case05_simple_anderson.jl:111
│     example message="removing test files"
│   count=1 at /Users/jdlara/.julia/dev/PowerSimulationsDynamics/test/test_case23_droopinverter.jl:133
│     example message="removing test files"
│   count=1 at /Users/jdlara/.julia/dev/PowerSimulationsDynamics/test/test_case04_marconato.jl:77
│     example message="removing test files"
│   count=1 at /Users/jdlara/.julia/dev/PowerSimulationsDynamics/test/test_case19_gensae.jl:155
│     example message="removing test files"
│   count=1 at /Users/jdlara/.julia/dev/PowerSimulationsDynamics/test/test_case09_oneDoneQ_inverter.jl:60
│     example message="removing test files"
│   count=1 at /Users/jdlara/.julia/dev/PowerSimulationsDynamics/test/test_case27_source_bus_voltage_change.jl:55
│     example message="removing test files"
│   count=1 at /Users/jdlara/.julia/dev/PowerSimulationsDynamics/test/test_case02_oneDoneQ.jl:78
│     example message="removing test files"
│   count=1 at /Users/jdlara/.julia/dev/PowerSimulationsDynamics/test/test_case24_gridfollowing.jl:86
│     example message="removing test files"
│   count=1 at /Users/jdlara/.julia/dev/PowerSimulationsDynamics/test/test_case04_marconato.jl:135
│     example message="removing test files"
│   count=1 at /Users/jdlara/.julia/dev/PowerSimulationsDynamics/test/test_case23_droopinverter.jl:79
│     example message="removing test files"
│   count=1 at /Users/jdlara/.julia/dev/PowerSimulationsDynamics/test/test_case28_PeriodicVariableSource.jl:57
│     example message="removing test files"
│   count=1 at /Users/jdlara/.julia/dev/PowerSimulationsDynamics/test/test_case10_staticbranches.jl:115
│     example message="removing test files"
│   count=1 at /Users/jdlara/.julia/dev/PowerSimulationsDynamics/test/test_case21_gast.jl:65
│     example message="removing test files"
│   count=1 at /Users/jdlara/.julia/dev/PowerSimulationsDynamics/test/test_case19_gensae.jl:94
│     example message="removing test files"
│   count=1 at /Users/jdlara/.julia/dev/PowerSimulationsDynamics/test/test_case01_OMIB.jl:166
│     example message="removing test files"
│   count=1 at /Users/jdlara/.julia/dev/PowerSimulationsDynamics/test/test_case06_anderson.jl:111
│     example message="removing test files"
│   count=1 at /Users/jdlara/.julia/dev/PowerSimulationsDynamics/test/test_case09_oneDoneQ_inverter.jl:110
│     example message="removing test files"
│   count=1 at /Users/jdlara/.julia/dev/PowerSimulationsDynamics/test/test_case12_multimachine.jl:110
│     example message="removing test files"
│   count=1 at /Users/jdlara/.julia/dev/PowerSimulationsDynamics/test/test_case06_anderson.jl:66
│     example message="removing test files"
│   count=1 at /Users/jdlara/.julia/dev/PowerSimulationsDynamics/test/test_case12_multimachine.jl:66
│     example message="removing test files"
│   count=1 at /Users/jdlara/.julia/dev/PowerSimulationsDynamics/test/test_case25_multimach_dynlines.jl:69
│     example message="removing test files"
│   count=1 at /Users/jdlara/.julia/dev/PowerSimulationsDynamics/test/test_case08_VirtualSynchMachine.jl:136
│     example message="removing test files"
│   count=1 at /Users/jdlara/.julia/dev/PowerSimulationsDynamics/test/test_case28_PeriodicVariableSource.jl:98
│     example message="removing test files"
│   count=1 at /Users/jdlara/.julia/dev/PowerSimulationsDynamics/test/test_case25_multimach_dynlines.jl:112
│     example message="removing test files"
│   count=1 at /Users/jdlara/.julia/dev/PowerSimulationsDynamics/test/test_case02_oneDoneQ.jl:137
│     example message="removing test files"
│   count=1 at /Users/jdlara/.julia/dev/PowerSimulationsDynamics/test/test_case17_genrou_avr.jl:54
│     example message="removing test files"
│   count=1 at /Users/jdlara/.julia/dev/PowerSimulationsDynamics/test/test_case22_SteamTurbineGov1.jl:120
│     example message="removing test files"
│   count=1 at /Users/jdlara/.julia/dev/PowerSimulationsDynamics/test/test_case11_dynbranches.jl:62
│     example message="removing test files"
│   count=1 at /Users/jdlara/.julia/dev/PowerSimulationsDynamics/test/test_base.jl:70
│     example message="removing test files"
│   count=1 at /Users/jdlara/.julia/dev/PowerSimulationsDynamics/test/test_case21_gast.jl:120
│     example message="removing test files"
│   count=1 at /Users/jdlara/.julia/dev/PowerSimulationsDynamics/test/test_case08_VirtualSynchMachine.jl:79
│     example message="removing test files"
│   count=1 at /Users/jdlara/.julia/dev/PowerSimulationsDynamics/test/test_case01_OMIB.jl:86
│     example message="removing test files"
│   count=1 at /Users/jdlara/.julia/dev/PowerSimulationsDynamics/test/test_case13_avrs.jl:105
│     example message="removing test files"
│   count=1 at /Users/jdlara/.julia/dev/PowerSimulationsDynamics/test/test_case22_SteamTurbineGov1.jl:65
│     example message="removing test files"
│   count=1 at /Users/jdlara/.julia/dev/PowerSimulationsDynamics/test/test_case05_simple_anderson.jl:66
│     example message="removing test files"
│   count=1 at /Users/jdlara/.julia/dev/PowerSimulationsDynamics/test/test_case03_simple_marconato.jl:139
│     example message="removing test files"
│   count=1 at /Users/jdlara/.julia/dev/PowerSimulationsDynamics/test/test_case07_5shaft.jl:67
│     example message="removing test files"
│   count=1 at /Users/jdlara/.julia/dev/PowerSimulationsDynamics/test/test_case27_source_bus_voltage_change.jl:162
│     example message="removing test files"
│   count=1 at /Users/jdlara/.julia/dev/PowerSimulationsDynamics/test/test_case18_gensal.jl:98
│     example message="removing test files"
│   count=1 at /Users/jdlara/.julia/dev/PowerSimulationsDynamics/test/test_case07_5shaft.jl:112
│     example message="removing test files"
│   count=1 at /Users/jdlara/.julia/dev/PowerSimulationsDynamics/test/test_case11_dynbranches.jl:103
│     example message="removing test files"
│   count=1 at /Users/jdlara/.julia/dev/PowerSimulationsDynamics/test/test_case14_inverter_ref.jl:67
│     example message="removing test files"
└ @ Main /Users/jdlara/.julia/dev/PowerSimulationsDynamics/test/runtests.jl:113
